#------------------------------------------------------------------------------
#$Date: 2016-03-04 10:16:03 +0200 (Fri, 04 Mar 2016) $
#$Revision: 177296 $
#$URL: svn://www.crystallography.net/cod/cif/1/54/26/1542640.cif $
#------------------------------------------------------------------------------
#
# This file is available in the Crystallography Open Database (COD),
# http://www.crystallography.net/
#
# All data on this site have been placed in the public domain by the
# contributors.
#
data_1542640
loop_
_publ_author_name
'Wang, Kai-Kai'
'Jin, Tian'
'Huang, Xin'
'Ouyang, Qin'
'Du, Wei'
'Chen, Ying-Chun'
_publ_section_title
;
 \a-Regioselective Asymmetric [3 + 2] Annulations of Morita-Baylis-Hillman
 Carbonates with Cyclic 1-Azadienes and Mechanism Elucidation.
;
_journal_issue                   4
_journal_name_full               'Organic letters'
_journal_page_first              872
_journal_page_last               875
_journal_paper_doi               10.1021/acs.orglett.6b00189
_journal_volume                  18
_journal_year                    2016
_chemical_formula_moiety         'C28 H22 N2 O5 S'
_chemical_formula_sum            'C28 H22 N2 O5 S'
_chemical_formula_weight         498.53
_chemical_name_systematic
;
 ?
;
_space_group_crystal_system      triclinic
_space_group_IT_number           2
_space_group_name_Hall           '-P 1'
_space_group_name_H-M_alt        'P -1'
_symmetry_space_group_name_Hall  '-P 1'
_symmetry_space_group_name_H-M   'P -1'
_atom_sites_solution_hydrogens   geom
_atom_sites_solution_primary     iterative
_audit_creation_date             2015-09-15
_audit_creation_method
;
Olex2 1.2
(compiled 2014.07.22 svn.r2960 for OlexSys, GUI svn.r4862)
;
_cell_angle_alpha                111.2004(17)
_cell_angle_beta                 94.4487(16)
_cell_angle_gamma                93.4599(14)
_cell_formula_units_Z            2
_cell_length_a                   8.28533(15)
_cell_length_b                   11.53237(19)
_cell_length_c                   14.1641(3)
_cell_measurement_reflns_used    16326
_cell_measurement_temperature    290.70(10)
_cell_measurement_theta_max      71.3240
_cell_measurement_theta_min      6.0290
_cell_volume                     1252.27(4)
_computing_cell_refinement
;
CrysAlisPro, Agilent Technologies,
Version 1.171.37.35 (release 13-08-2014 CrysAlis171 .NET)
(compiled Aug 13 2014,18:06:01)
;
_computing_data_collection
;
CrysAlisPro, Agilent Technologies,
Version 1.171.37.35 (release 13-08-2014 CrysAlis171 .NET)
(compiled Aug 13 2014,18:06:01)
;
_computing_data_reduction
;
CrysAlisPro, Agilent Technologies,
Version 1.171.37.35 (release 13-08-2014 CrysAlis171 .NET)
(compiled Aug 13 2014,18:06:01)
;
_computing_molecular_graphics    'Olex2 (Dolomanov et al., 2009)'
_computing_publication_material  'Olex2 (Dolomanov et al., 2009)'
_computing_structure_refinement  'ShelXL (Sheldrick, 2008)'
_computing_structure_solution
;
Superflip (Palatinus & Chapuis, 2007;Palatinus & van der Lee, 2008;
Palatinus et al., 2012)
;
_diffrn_ambient_environment      air
_diffrn_ambient_temperature      290.70(10)
_diffrn_detector                 'CCD plate'
_diffrn_detector_area_resol_mean 8.0243
_diffrn_detector_type            EosS2
_diffrn_measured_fraction_theta_full 0.998
_diffrn_measured_fraction_theta_max 0.990
_diffrn_measurement_details
;
  1 omega  -32.00   56.00   1.0000    1.0000
omega____ theta____ kappa____ phi______ frames
    -       36.7203  -38.0000  120.0000 88

  2 omega   10.00  104.00   1.0000    1.0000
omega____ theta____ kappa____ phi______ frames
    -       36.7203   77.0000   90.0000 94

  3 omega   10.00  104.00   1.0000    1.0000
omega____ theta____ kappa____ phi______ frames
    -       36.7203   77.0000    0.0000 94

  4 omega  -35.00   66.00   1.0000    1.0000
omega____ theta____ kappa____ phi______ frames
    -       36.7203  -19.0000 -150.0000 101

  5 omega    1.00   76.00   1.0000    1.0000
omega____ theta____ kappa____ phi______ frames
    -       36.7203  -99.0000 -150.0000 75

  6 omega    7.00  108.00   1.0000    1.0000
omega____ theta____ kappa____ phi______ frames
    -       36.7203   19.0000 -120.0000 101

  7 omega  -31.00   63.00   1.0000    1.0000
omega____ theta____ kappa____ phi______ frames
    -       36.7203  -77.0000 -120.0000 94

  8 omega   55.00  109.00   1.0000    1.0000
omega____ theta____ kappa____ phi______ frames
    -       36.7203 -178.0000   90.0000 54

  9 omega   57.00  109.00   1.0000    1.0000
omega____ theta____ kappa____ phi______ frames
    -       36.7203  178.0000    0.0000 52

 10 omega   57.00  109.00   1.0000    1.0000
omega____ theta____ kappa____ phi______ frames
    -       36.7203  178.0000 -120.0000 52

 11 omega   38.00   91.00   1.0000    8.0000
omega____ theta____ kappa____ phi______ frames
    -      108.0000  -30.0000   30.0000 53

 12 omega   38.00   91.00   1.0000    8.0000
omega____ theta____ kappa____ phi______ frames
    -      108.0000  -30.0000  120.0000 53

 13 omega   38.00   91.00   1.0000    8.0000
omega____ theta____ kappa____ phi______ frames
    -      108.0000  -30.0000   60.0000 53

 14 omega   39.00  110.00   1.0000    8.0000
omega____ theta____ kappa____ phi______ frames
    -      108.0000  -95.0000   60.0000 71

 15 omega   40.00   98.00   1.0000    8.0000
omega____ theta____ kappa____ phi______ frames
    -      108.0000  -45.0000  -30.0000 58

 16 omega   91.00  176.00   1.0000    8.0000
omega____ theta____ kappa____ phi______ frames
    -      108.0000   45.0000   60.0000 85

 17 omega   40.00   98.00   1.0000    8.0000
omega____ theta____ kappa____ phi______ frames
    -      108.0000  -45.0000   30.0000 58

 18 omega   91.00  176.00   1.0000    8.0000
omega____ theta____ kappa____ phi______ frames
    -      108.0000   45.0000  -60.0000 85

 19 omega   38.00  116.00   1.0000    8.0000
omega____ theta____ kappa____ phi______ frames
    -      108.0000 -112.0000 -180.0000 78

 20 omega   91.00  177.00   1.0000    8.0000
omega____ theta____ kappa____ phi______ frames
    -      108.0000   44.0000  158.0000 86

 21 omega   91.00  176.00   1.0000    8.0000
omega____ theta____ kappa____ phi______ frames
    -      108.0000   45.0000    0.0000 85

 22 omega   38.00   91.00   1.0000    8.0000
omega____ theta____ kappa____ phi______ frames
    -      108.0000  -30.0000  150.0000 53

 23 omega   39.00  110.00   1.0000    8.0000
omega____ theta____ kappa____ phi______ frames
    -      108.0000  -95.0000 -150.0000 71

 24 omega   40.00  135.00   1.0000    8.0000
omega____ theta____ kappa____ phi______ frames
    -      108.0000  -77.0000 -120.0000 95

 25 omega   38.00   91.00   1.0000    8.0000
omega____ theta____ kappa____ phi______ frames
    -      108.0000  -30.0000 -120.0000 53

 26 omega   41.00  126.00   1.0000    8.0000
omega____ theta____ kappa____ phi______ frames
    -      108.0000  -61.0000  150.0000 85

 27 omega   39.00  110.00   1.0000    8.0000
omega____ theta____ kappa____ phi______ frames
    -      108.0000  -95.0000  -30.0000 71

 28 omega   10.00  104.00   1.0000    1.0000
omega____ theta____ kappa____ phi______ frames
    -       36.7203   77.0000 -180.0000 94

 29 omega   10.00  104.00   1.0000    1.0000
omega____ theta____ kappa____ phi______ frames
    -       36.7203   77.0000  -60.0000 94

 30 omega   20.00  104.00   1.0000    1.0000
omega____ theta____ kappa____ phi______ frames
    -       36.7203   57.0000  -90.0000 84

 31 omega   10.00  104.00   1.0000    1.0000
omega____ theta____ kappa____ phi______ frames
    -       36.7203   77.0000  120.0000 94

 32 omega   10.00  104.00   1.0000    1.0000
omega____ theta____ kappa____ phi______ frames
    -       36.7203   77.0000 -150.0000 94

 33 omega   20.00  104.00   1.0000    1.0000
omega____ theta____ kappa____ phi______ frames
    -       36.7203   57.0000    0.0000 84

 34 omega  -31.00   53.00   1.0000    1.0000
omega____ theta____ kappa____ phi______ frames
    -       36.7203  -57.0000   60.0000 84

 35 omega    1.00   76.00   1.0000    1.0000
omega____ theta____ kappa____ phi______ frames
    -       36.7203  -99.0000    0.0000 75

 36 omega   91.00  176.00   1.0000    8.0000
omega____ theta____ kappa____ phi______ frames
    -      108.0000   45.0000   30.0000 85

 37 omega   91.00  176.00   1.0000    8.0000
omega____ theta____ kappa____ phi______ frames
    -      108.0000   45.0000  -30.0000 85

 38 omega   91.00  176.00   1.0000    8.0000
omega____ theta____ kappa____ phi______ frames
    -      108.0000   45.0000  -90.0000 85

 39 omega   87.00  178.00   1.0000    8.0000
omega____ theta____ kappa____ phi______ frames
    -      108.0000   30.0000 -150.0000 91

 40 omega   90.00  175.00   1.0000    8.0000
omega____ theta____ kappa____ phi______ frames
    -      108.0000   61.0000    0.0000 85

 41 omega   90.00  175.00   1.0000    8.0000
omega____ theta____ kappa____ phi______ frames
    -      108.0000   61.0000  120.0000 85

 42 omega   87.00  178.00   1.0000    8.0000
omega____ theta____ kappa____ phi______ frames
    -      108.0000   30.0000  120.0000 91

 43 omega   81.00  176.00   1.0000    8.0000
omega____ theta____ kappa____ phi______ frames
    -      108.0000   77.0000  150.0000 95

 44 omega   81.00  176.00   1.0000    8.0000
omega____ theta____ kappa____ phi______ frames
    -      108.0000   77.0000   90.0000 95

 45 omega   87.00  178.00   1.0000    8.0000
omega____ theta____ kappa____ phi______ frames
    -      108.0000   30.0000 -120.0000 91

 46 omega   87.00  178.00   1.0000    8.0000
omega____ theta____ kappa____ phi______ frames
    -      108.0000   30.0000  -90.0000 91

 47 omega   90.00  175.00   1.0000    8.0000
omega____ theta____ kappa____ phi______ frames
    -      108.0000   61.0000  -30.0000 85

 48 omega   81.00  155.00   1.0000    8.0000
omega____ theta____ kappa____ phi______ frames
    -      108.0000   77.0000 -180.0000 74

 49 omega   81.00  176.00   1.0000    8.0000
omega____ theta____ kappa____ phi______ frames
    -      108.0000   77.0000   60.0000 95
;
_diffrn_measurement_device       'four-circle diffractometer'
_diffrn_measurement_device_type  'SuperNova, Dual, Cu at zero, EosS2'
_diffrn_measurement_method       '\w scans'
_diffrn_orient_matrix_UB_11      -0.1413179000
_diffrn_orient_matrix_UB_12      0.0776281000
_diffrn_orient_matrix_UB_13      -0.0088828000
_diffrn_orient_matrix_UB_21      -0.1072896000
_diffrn_orient_matrix_UB_22      -0.1208363000
_diffrn_orient_matrix_UB_23      -0.0647957000
_diffrn_orient_matrix_UB_31      -0.0601507000
_diffrn_orient_matrix_UB_32      -0.0094823000
_diffrn_orient_matrix_UB_33      0.0974137000
_diffrn_radiation_monochromator  mirror
_diffrn_radiation_probe          x-ray
_diffrn_radiation_type           CuK\a
_diffrn_radiation_wavelength     1.54184
_diffrn_reflns_av_R_equivalents  0.0282
_diffrn_reflns_av_unetI/netI     0.0161
_diffrn_reflns_laue_measured_fraction_full 0.998
_diffrn_reflns_laue_measured_fraction_max 0.990
_diffrn_reflns_limit_h_max       10
_diffrn_reflns_limit_h_min       -10
_diffrn_reflns_limit_k_max       14
_diffrn_reflns_limit_k_min       -14
_diffrn_reflns_limit_l_max       17
_diffrn_reflns_limit_l_min       -14
_diffrn_reflns_number            23133
_diffrn_reflns_point_group_measured_fraction_full 0.998
_diffrn_reflns_point_group_measured_fraction_max 0.990
_diffrn_reflns_theta_full        67.684
_diffrn_reflns_theta_max         71.538
_diffrn_reflns_theta_min         5.380
_diffrn_source                   'sealed X-ray tube'
_diffrn_source_type              'SuperNova (Cu) X-ray Source'
_exptl_absorpt_coefficient_mu    1.496
_exptl_absorpt_correction_T_max  1.00000
_exptl_absorpt_correction_T_min  0.06936
_exptl_absorpt_correction_type   multi-scan
_exptl_absorpt_process_details
;
CrysAlisPro, Agilent Technologies,
Version 1.171.37.35 (release 13-08-2014 CrysAlis171 .NET)
(compiled Aug 13 2014,18:06:01)
Empirical absorption correction using spherical harmonics,
 implemented in SCALE3 ABSPACK scaling algorithm.
;
_exptl_crystal_colour            'clear yellowish yellow'
_exptl_crystal_colour_lustre     clear
_exptl_crystal_colour_modifier   yellowish
_exptl_crystal_colour_primary    yellow
_exptl_crystal_density_diffrn    1.322
_exptl_crystal_description       block
_exptl_crystal_F_000             520
_exptl_crystal_size_max          0.15
_exptl_crystal_size_mid          0.15
_exptl_crystal_size_min          0.14
_refine_diff_density_max         0.193
_refine_diff_density_min         -0.325
_refine_diff_density_rms         0.035
_refine_ls_extinction_method     none
_refine_ls_goodness_of_fit_ref   1.050
_refine_ls_hydrogen_treatment    constr
_refine_ls_matrix_type           full
_refine_ls_number_parameters     327
_refine_ls_number_reflns         4829
_refine_ls_number_restraints     0
_refine_ls_restrained_S_all      1.050
_refine_ls_R_factor_all          0.0381
_refine_ls_R_factor_gt           0.0368
_refine_ls_shift/su_max          0.000
_refine_ls_shift/su_mean         0.000
_refine_ls_structure_factor_coef Fsqd
_refine_ls_weighting_details
'w=1/[\s^2^(Fo^2^)+(0.0514P)^2^+0.2714P] where P=(Fo^2^+2Fc^2^)/3'
_refine_ls_weighting_scheme      calc
_refine_ls_wR_factor_gt          0.1004
_refine_ls_wR_factor_ref         0.1015
_reflns_Friedel_coverage         0.000
_reflns_number_gt                4605
_reflns_number_total             4829
_reflns_threshold_expression     'I > 2\s(I)'
_cod_data_source_file            ol6b00189_si_002.cif
_cod_data_source_block           3a'
_cod_database_code               1542640
_shelxl_version_number           2014-1
_chemical_oxdiff_formula         'C1 H1 N1 O1 S1'
_shelx_space_group_comment
;
The symmetry employed for this shelxl refinement is uniquely defined
by the following loop, which should always be used as a source of
symmetry information in preference to the above space-group names.
They are only intended as comments.
;
_reflns_odcompleteness_completeness 99.89
_reflns_odcompleteness_iscentric 1
_reflns_odcompleteness_theta     66.97
_olex2_refinement_description
;
1. Fixed Uiso
 At 1.2 times of:
  All C(H) groups
 At 1.5 times of:
  All C(H,H,H) groups
2.a Ternary CH refined with riding coordinates:
 C10(H10), C13(H13)
2.b Aromatic/amide H refined with riding coordinates:
 C27(H27), C11(H11), C6(H6), C3(H3), C15(H15), C25(H25), C19(H19), C26(H26),
 C4(H4), C16(H16), C5(H5), C24(H24), C18(H18), C17(H17)
2.c Idealised Me refined as rotating group:
 C36(H36A,H36B,H36C), C33(H33A,H33B,H33C)
;
_shelx_res_file
;
TITL CF solution in P-1
CELL 1.54184 8.285327 11.532371 14.164072 111.2004 94.4487 93.4599
ZERR 2 0.000147 0.000194 0.00028 0.0017 0.0016 0.0014
LATT 1

SFAC C H N O S
UNIT 56 44 4 10 2

L.S. 14
PLAN  25
BOND
fmap 2
acta
REM <HKL>D:/data/cyc0914/struct/olex2_cyc0914/cyc0914.hkl</HKL>

WGHT    0.051400    0.271400
FVAR       8.26693
S22   5    0.150285    0.319832    0.351221    11.00000    0.04096    0.05911 =
         0.08063    0.03326    0.02152    0.01310
O29   4    0.127173    0.284292    0.436106    11.00000    0.06532    0.08449 =
         0.09662    0.04997    0.03928    0.01379
O32   4    0.845082    0.092651   -0.042827    11.00000    0.07443    0.06479 =
         0.08000    0.02567    0.04257    0.03579
O35   4    0.305124    0.203011    0.043408    11.00000    0.05534    0.04291 =
         0.06821    0.00737   -0.00388    0.00400
N1    3    0.379919    0.413830    0.098384    11.00000    0.04694    0.04033 =
         0.04916    0.01545    0.01122    0.01554
O30   4    0.011232    0.310091    0.282045    11.00000    0.04416    0.09753 =
         0.12760    0.05775    0.00410    0.00983
N21   3    0.290786    0.237190    0.285315    11.00000    0.04360    0.04025 =
         0.06203    0.01755    0.01275    0.00488
O34   4    0.743157    0.261089   -0.053423    11.00000    0.13194    0.09441 =
         0.08223    0.05567    0.05860    0.06428
C20   1    0.418412    0.309583    0.290240    11.00000    0.04087    0.03150 =
         0.04435    0.01297    0.00980    0.00758
C2    1    0.524410    0.492316    0.137016    11.00000    0.05248    0.03694 =
         0.04113    0.01411    0.01777    0.01386
C14   1    0.611303    0.059217    0.268435    11.00000    0.05286    0.02644 =
         0.05005    0.00930    0.01354    0.00996
C10   1    0.550651    0.112970    0.190728    11.00000    0.04677    0.02689 =
         0.05044    0.00884    0.00970    0.00817
AFIX  13
H10   2    0.437846    0.078706    0.165120    11.00000   -1.20000
AFIX   0
C7    1    0.647805    0.424658    0.157037    11.00000    0.04703    0.03423 =
         0.04244    0.01301    0.01639    0.00997
C28   1    0.415248    0.444418    0.354179    11.00000    0.04940    0.03320 =
         0.04236    0.01344    0.01625    0.01310
C13   1    0.558251    0.257638    0.232235    11.00000    0.03970    0.02765 =
         0.04449    0.00954    0.01029    0.00825
AFIX  13
H13   2    0.658476    0.290307    0.278517    11.00000   -1.20000
AFIX   0
C9    1    0.404358    0.292992    0.083892    11.00000    0.04697    0.03763 =
         0.04231    0.00951    0.00952    0.01140
C8    1    0.576796    0.292927    0.134405    11.00000    0.04231    0.03144 =
         0.04322    0.00965    0.01123    0.01068
C12   1    0.666292    0.184595    0.072842    11.00000    0.04541    0.03542 =
         0.04377    0.00789    0.00982    0.01397
C23   1    0.264028    0.465598    0.389877    11.00000    0.05543    0.04723 =
         0.06045    0.02335    0.02489    0.02019
C31   1    0.752981    0.186009   -0.014043    11.00000    0.05104    0.04602 =
         0.04638    0.01086    0.01193    0.01637
C27   1    0.535317    0.542685    0.382110    11.00000    0.06248    0.03471 =
         0.04246    0.01159    0.01532    0.00612
AFIX  43
H27   2    0.638551    0.530189    0.361027    11.00000   -1.20000
AFIX   0
C11   1    0.648825    0.088064    0.101864    11.00000    0.05199    0.03215 =
         0.04678    0.00524    0.00853    0.01465
AFIX  43
H11   2    0.692636    0.012879    0.070592    11.00000   -1.20000
AFIX   0
C6    1    0.802181    0.482363    0.193171    11.00000    0.04835    0.04863 =
         0.05874    0.01852    0.01303    0.00588
AFIX  43
H6    2    0.885762    0.437827    0.205732    11.00000   -1.20000
AFIX   0
C3    1    0.551161    0.618271    0.154436    11.00000    0.07185    0.03874 =
         0.06041    0.02170    0.02205    0.01740
AFIX  43
H3    2    0.468001    0.662908    0.141481    11.00000   -1.20000
AFIX   0
C15   1    0.774420    0.072047    0.301894    11.00000    0.05515    0.04346 =
         0.05662    0.01637    0.01312    0.01036
AFIX  43
H15   2    0.848184    0.113978    0.276260    11.00000   -1.20000
AFIX   0
C25   1    0.345004    0.680685    0.473787    11.00000    0.11445    0.04153 =
         0.06281    0.01345    0.03531    0.03229
AFIX  43
H25   2    0.322303    0.761180    0.512219    11.00000   -1.20000
AFIX   0
C19   1    0.503912   -0.004897    0.307022    11.00000    0.06130    0.04769 =
         0.07675    0.02846    0.01645    0.00534
AFIX  43
H19   2    0.393416   -0.014966    0.285121    11.00000   -1.20000
AFIX   0
C36   1    0.225092    0.453412    0.071998    11.00000    0.05380    0.06248 =
         0.07206    0.02596    0.01230    0.02601
AFIX 137
H36A  2    0.190365    0.514074    0.131708    11.00000   -1.50000
H36B  2    0.145323    0.382450    0.045345    11.00000   -1.50000
H36C  2    0.237346    0.489850    0.021516    11.00000   -1.50000
AFIX   0
C26   1    0.497697    0.660888    0.442641    11.00000    0.09578    0.03372 =
         0.04891    0.01111    0.01691    0.00766
AFIX  43
H26   2    0.577392    0.727909    0.462463    11.00000   -1.20000
AFIX   0
C4    1    0.707275    0.675249    0.192052    11.00000    0.08171    0.03651 =
         0.07155    0.01818    0.02346    0.00252
AFIX  43
H4    2    0.728877    0.759994    0.205013    11.00000   -1.20000
AFIX   0
C16   1    0.830074    0.023131    0.373440    11.00000    0.06911    0.05893 =
         0.06424    0.01982    0.00329    0.01865
AFIX  43
H16   2    0.940365    0.032950    0.395814    11.00000   -1.20000
AFIX   0
C5    1    0.830607    0.609387    0.210582    11.00000    0.06147    0.05084 =
         0.07150    0.01828    0.01406   -0.00696
AFIX  43
H5    2    0.934328    0.649878    0.235025    11.00000   -1.20000
AFIX   0
C24   1    0.224758    0.582638    0.448786    11.00000    0.08359    0.06077 =
         0.07742    0.02737    0.04365    0.04027
AFIX  43
H24   2    0.122042    0.595090    0.470721    11.00000   -1.20000
AFIX   0
C18   1    0.560247   -0.053985    0.377939    11.00000    0.09202    0.06148 =
         0.08643    0.04356    0.02600    0.00785
AFIX  43
H18   2    0.487246   -0.096990    0.403162    11.00000   -1.20000
AFIX   0
C17   1    0.721933   -0.039823    0.411151    11.00000    0.10355    0.05740 =
         0.06540    0.03101    0.01193    0.02054
AFIX  43
H17   2    0.758828   -0.072611    0.459089    11.00000   -1.20000
AFIX   0
C33   1    0.943483    0.082814   -0.123669    11.00000    0.06345    0.09417 =
         0.06922    0.01152    0.03255    0.02374
AFIX 137
H33A  2    0.882783    0.102253   -0.175686    11.00000   -1.50000
H33B  2    0.974293   -0.000794   -0.151985    11.00000   -1.50000
H33C  2    1.039337    0.140389   -0.097530    11.00000   -1.50000
AFIX   0
HKLF 4

REM  CF solution in P-1
REM R1 =  0.0368 for    4605 Fo > 4sig(Fo)  and  0.0381 for all    4829 data
REM    327 parameters refined using      0 restraints

END

WGHT      0.0514      0.2714

REM Highest difference peak  0.193,  deepest hole -0.325,  1-sigma level  0.035
Q1    1   0.6229  0.2417  0.0997  11.00000  0.05    0.19
Q2    1   0.3523  0.4628  0.3902  11.00000  0.05    0.18
Q3    1   0.4851  0.2864  0.2554  11.00000  0.05    0.18
Q4    1   0.6667  0.1888 -0.0799  11.00000  0.05    0.18
Q5    1   0.8853  0.0065 -0.2007  11.00000  0.05    0.18
Q6    1   0.6202  0.3598  0.1464  11.00000  0.05    0.17
Q7    1   0.4240  0.3766  0.3203  11.00000  0.05    0.15
Q8    1   0.9695  0.1808 -0.1261  11.00000  0.05    0.15
Q9    1   0.5939  0.4613  0.1473  11.00000  0.05    0.15
Q10   1   0.5595  0.2815  0.1811  11.00000  0.05    0.15
Q11   1   0.8945  0.1558 -0.0149  11.00000  0.05    0.14
Q12   1   0.5001  0.2847  0.1045  11.00000  0.05    0.14
Q13   1   0.7146  0.4578  0.1966  11.00000  0.05    0.14
Q14   1   0.6890  0.1724  0.0272  11.00000  0.05    0.14
Q15   1   0.5530  0.1903  0.2188  11.00000  0.05    0.12
Q16   1   0.1396  0.4124  0.1067  11.00000  0.05    0.12
Q17   1   0.7721  0.0972 -0.0806  11.00000  0.05    0.12
Q18   1   0.1947  0.4053  0.3589  11.00000  0.05    0.12
Q19   1   1.0771  0.0814 -0.0841  11.00000  0.05    0.12
Q20   1   0.5808  0.0904  0.2372  11.00000  0.05    0.12
Q21   1   0.7139  0.1602  0.1025  11.00000  0.05    0.11
Q22   1   0.3403  0.2832  0.2611  11.00000  0.05    0.11
Q23   1   0.2167  0.1215  0.2552  11.00000  0.05    0.11
Q24   1   0.4470  0.4611  0.1319  11.00000  0.05    0.11
Q25   1   0.2362  0.5567  0.1029  11.00000  0.05    0.11
;
_shelx_res_checksum              62250
_shelx_hkl_file
;
   0   0  -2 7347.03 161.377   6
   0   0  -2 7219.24 169.335  32
   0   0   2 7124.53 196.313   4
   0   0   2 7365.50 192.294  35
   0   0  -2 7116.97 158.221  28
   0   0   3 38077.6 627.625  35
   0   0   3 35162.1 630.276   4
   0   0  -3 38191.9 542.895  28
   0   0  -3 38342.0 555.056   6
   0   0  -3 38651.3 605.782  30
   0   0   3 33363.9 688.408   8
   0   0  -3 36374.6 561.080  32
   0   0  -4 132990. 1622.52  32
   0   0  -4 134642. 1687.08  30
   0   0   4 129998. 1746.08   4
   0   0  -4 130569. 1594.20   6
   0   0   4 128944. 1711.95  35
   0   0  -4 133744. 1571.02  28
   0   0   5 5103.72 296.748   5
   0   0   5 4480.52 310.297   9
   0   0  -5 4624.57 220.811  30
   0   0  -5 4736.82 197.381  32
   0   0   5 4661.77 297.668   7
   0   0  -5 4467.60 170.193  28
   0   0   5 4711.98 246.317   4
   0   0   5 4339.44 226.923  35
   0   0  -6 8030.75 284.982  32
   0   0   6 6958.59 414.475   7
   0   0   6 7769.91 407.795   5
   0   0   6 8009.56 464.771   9
   0   0   6 7283.90 350.640   4
   0   0  -6 7509.45 235.215  28
   0   0  -6 7508.28 316.690  30
   0   0   6 6723.42 314.887  35
   0   0   7 882.546 153.386   5
   0   0   7 989.174 182.569   9
   0   0  -7 1031.53 107.773  32
   0   0  -7 1536.39 161.859  29
   0   0  -7 1091.80 130.263  30
   0   0   7 1087.07 182.624   7
   0   0   7 1044.81 143.592   4
   0   0  -8 5334.24 313.636  30
   0   0   8 5008.87 425.095   7
   0   0   8 5119.43 402.588   5
   0   0   8 4686.60 437.110   9
   0   0  -9 7978.66 437.275  29
   0   0   9 7311.59 596.901   9
   0   0  -9 7618.29 407.111  30
   0   0   9 7178.19 557.208   7
   0   0   9 7736.37 541.533   5
   0   0  10 1261.66 74.7301  23
   0   0 -10 1355.79 189.089  29
   0   0  10 1244.06 247.100   7
   0   0  10 1355.00 279.100   9
   0   0  10 1369.48 75.6527  19
   0   0  10 1338.53 240.348   5
   0   0  10 1309.37 85.0446  24
   0   0 -10 1336.92 180.079  30
   0   0  11 6462.75 202.804  24
   0   0  11 6477.31 183.501  26
   0   0  11 6300.41 183.574  23
   0   0  12 8084.11 209.821  26
   0   0  12 7723.64 229.985  24
   0   0  12 7834.34 207.167  23
   0   0  13 84.3673 25.9936  23
   0   0  13 28.0583 19.7919  24
   0   0  13 38.5370 18.3812  26
   0   0  14 2622.34 116.890  24
   0   0  14 2593.20 99.5342  26
   0   0  14 2712.20 103.703  23
   0   0  15 97.7566 19.3501  23
   0   0  15 69.6447 16.7704  26
   0   0  15 76.0031 21.9667  24
   0   0  16 17.0836 10.8947  24
   0  -1  16 7.44652 9.55627  23
   0  -1  16 11.5272 10.8123  24
   0  -1  15 1092.50 69.3138  24
   0  -1  15 1093.94 57.2644  26
   0  -1  15 1111.15 62.6246  23
   0  -1  14 1400.78 79.0937  19
   0  -1  14 1168.27 69.0255  26
   0  -1  14 1160.55 79.9422  24
   0  -1  14 1154.92 71.9904  23
   0  -1  13 4085.47 141.532  26
   0  -1  13 3961.53 145.549  23
   0  -1  13 4355.40 165.755  24
   0  -1  12 1349.50 82.2855  19
   0  -1  12 1195.30 77.5144  23
   0  -1  12 1182.91 86.8476  24
   0  -1  12 1301.29 79.8819  26
   0  -1  11 8568.76 218.226  23
   0  -1  11 8663.72 217.945  26
   0  -1  11 9054.68 242.060  24
   0  -1  10 885.449 203.244   7
   0  -1  10 966.905 226.716   9
   0   1 -10 1077.80 160.146  30
   0  -1  10 1054.72 212.041   5
   0   1 -10 974.397 158.697  29
   0  -1   9 12605.5 748.897   9
   0  -1   9 11829.6 692.139   7
   0  -1   9 12123.8 673.994   5
   0   1  -9 11580.3 453.604  32
   0   1  -9 11640.8 498.029  30
   0  -1   8 3001.58 331.602   9
   0   1  -8 2654.76 216.395  30
   0  -1   8 2601.50 291.707   7
   0   1  -8 2602.82 197.126  32
   0  -1   8 2777.80 292.215   5
   0  -1   7 2402.03 257.309   7
   0  -1   7 2916.86 224.779  35
   0   1  -7 2757.25 175.296  28
   0   1  -7 2847.52 210.448  30
   0  -1   7 2741.98 264.735   5
   0  -1   7 2668.11 282.853   9
   0   1  -6 63982.9 931.419   6
   0   1  -6 63942.4 1060.41  32
   0  -1   6 66221.5 1085.13   4
   0  -1   6 63970.7 1393.44   9
   0  -1   6 63255.5 1153.16  35
   0  -1   6 59476.9 1295.98   7
   0   1  -6 63969.6 1111.75  30
   0  -1   6 67307.0 1359.22   5
   0   1  -6 62413.2 1022.90  28
   0   1  -5 26974.9 562.189  28
   0  -1   5 26612.7 563.066   4
   0   1  -5 28245.7 581.472  32
   0  -1   5 27951.4 740.704   5
   0  -1   5 25921.1 618.605  35
   0  -1   5 28119.0 781.520   9
   0   1  -5 28109.5 495.497   6
   0  -1   5 26736.1 713.760   7
   0   1  -4 560456. 5938.02  32
   0  -1   4 510931. 6090.08   7
   0  -1   4 554501. 6010.79  35
   0   1  -4 571226. 5812.71   6
   0  -1   4 529898. 6033.36  10
   0   1  -4 556715. 5940.69  28
   0  -1   4 544301. 5871.07   4
   0  -1   3 104416. 1379.23  10
   0  -1   3 107612. 1359.87  35
   0   1  -3 104963. 1314.98  28
   0  -1   3 94872.5 1359.88   7
   0  -1   3 96470.4 1218.95   4
   0   1  -3 104883. 1213.50   6
   0  -1   3 93358.6 1329.49   1
   0  -1   2 12533.9 279.254   7
   0  -1   2 13267.3 303.037  35
   0  -1   2 12473.4 288.288   1
   0  -1  -1 313300. 3302.28  32
   0  -1  -1 320428. 3323.97  34
   0   1   1 317698. 3397.88  31
   0  -1  -2 28225.6 380.500  34
   0  -1  -2 27166.5 388.235  32
   0   1   2 26377.0 500.784   8
   0   1   2 25119.9 436.703  31
   0   1   2 24210.7 503.665   2
   0   1   2 26230.2 498.573   5
   0  -1  -3 212725. 2340.53  32
   0   1   3 201213. 2569.96   5
   0  -1  -3 216727. 2458.18  30
   0  -1  -3 207590. 2217.91  28
   0   1   3 201511. 2503.37  35
   0   1   3 213010. 2621.69   4
   0   1   3 213780. 2609.63   8
   0   1   4 51994.1 909.375  35
   0   1   4 50519.3 1076.00   9
   0   1   4 53382.5 999.974   4
   0  -1  -4 49755.8 618.288  28
   0   1   4 51387.8 981.112   5
   0  -1  -4 54086.8 891.852  29
   0   1   4 51440.0 1007.83   8
   0  -1  -4 51312.1 848.296  30
   0   1   4 52692.2 1070.69   7
   0  -1  -4 52946.5 749.228  32
   0  -1  -5 831.755 97.5257  30
   0   1   5 910.279 148.698   9
   0   1   5 879.601 127.729   5
   0   1   5 780.657 102.598  35
   0  -1  -5 768.962 99.6389  29
   0   1   5 699.437 125.052   7
   0   1   5 743.037 112.030   4
   0  -1  -5 767.188 73.5904  32
   0   1   6 164.139 65.0993   4
   0  -1  -6 197.620 55.8100  29
   0  -1  -6 196.545 42.5229  32
   0   1   6 177.136 71.9105   7
   0   1   6 205.783 68.1503   5
   0  -1  -6 205.615 54.6746  30
   0   1   6 135.512 45.0947  35
   0   1   7 40743.6 1273.30   9
   0   1   7 35862.6 1005.51   4
   0   1   7 34978.2 1126.35   7
   0   1   7 40599.3 1110.36   5
   0  -1  -7 40282.4 935.874  29
   0  -1  -7 37776.2 891.151  30
   0   1   8 89.7536 54.4797   7
   0   1   8 130.037 92.0894   9
   0   1   8 83.6742 40.6234   5
   0  -1  -8 113.543 53.3507  29
   0  -1  -9 105.666 59.9354  30
   0  -1  -9 35.5538 48.8706  29
   0   1   9 134.557 90.9943   7
   0   1   9 78.0934 92.7052   9
   0   1  10 14987.9 328.987  24
   0   1  10 15828.3 306.698  26
   0   1  10 15333.1 300.433  23
   0   1  11 16.3931 17.3276  19
   0   1  11 25.9769 18.4330  23
   0   1  11 19.2287 18.5480  24
   0   1  11 21.1137 17.2002  26
   0   1  12 926.141 65.0345  23
   0   1  12 852.952 63.9151  26
   0   1  12 865.920 73.4853  24
   0   1  13 15.8652 17.7346  26
   0   1  13 9.83764 20.2390  24
   0   1  13-27.2849 24.2795  23
   0   1  14 1627.12 72.7177  26
   0   1  14 1760.41 74.6446  23
   0   1  14 1593.48 83.6790  24
   0   1  15 1644.36 58.6089  23
   0   1  15 1594.95 57.6137  26
   0   1  15 1535.97 69.4714  24
   0  -2  16 1081.08 57.8675  24
   0  -2  16 1129.69 56.8625  23
   0  -2  15 1966.62 93.8908  24
   0  -2  15 1954.91 88.7720  23
   0  -2  15 1839.13 78.4469  26
   0  -2  14 2635.33 112.576  19
   0  -2  14 2326.08 112.088  24
   0  -2  14 2241.00 105.431  23
   0  -2  14 2306.45 100.246  26
   0  -2  13 496.920 56.8757  24
   0  -2  13 404.013 47.8610  23
   0  -2  13 508.793 52.4952  19
   0  -2  13 410.271 46.4805  26
   0  -2  12 2099.53 112.582  24
   0  -2  12 2102.33 101.123  26
   0  -2  12 2303.13 108.162  19
   0  -2  11 804.796 62.6954  23
   0  -2  11 861.652 63.3570  26
   0  -2  11 853.572 63.2570  19
   0  -2  11 890.466 70.0052  24
   0  -2  10 3254.22 373.242   5
   0  -2  10 3207.67 394.158   9
   0   2 -10 3373.27 276.444  30
   0   2 -10 3922.06 286.693  32
   0  -2  10 3353.32 383.262   7
   0  -2   9 24528.1 965.118   7
   0   2  -9 23743.8 732.406  30
   0   2  -9 23369.3 704.678  32
   0  -2   9 25378.2 1041.69   9
   0  -2   9 24295.3 963.294   5
   0  -2   8 13729.4 651.925   7
   0  -2   8 14006.0 676.480   5
   0  -2   8 14003.3 696.544   9
   0   2  -8 14050.4 505.044  32
   0   2  -8 15816.0 513.990  28
   0   2  -8 14422.9 526.994  30
   0  -2   7 15936.5 560.714  35
   0  -2   7 17333.0 685.251   5
   0   2  -7 16290.7 516.365  32
   0  -2   7 16944.4 698.849   9
   0  -2   7 14941.2 614.498   7
   0   2  -7 16353.3 508.441  28
   0   2  -6 58.4342 38.4005  28
   0   2  -6 83.0743 34.0517  31
   0  -2   6 63.3489 41.7437   5
   0  -2   6 91.3893 57.4081   9
   0   2  -6 78.1512 37.8882  32
   0  -2   6 87.1608 47.9790   7
   0  -2   6 86.8464 39.3862   1
   0   2  -6 108.402 30.9092   6
   0  -2   6 92.4052 44.1434  10
   0  -2   5 192324. 2545.95   1
   0   2  -5 193454. 2473.09  28
   0  -2   5 201252. 2641.73  10
   0  -2   5 187410. 2243.64   4
   0   2  -5 202734. 2301.38   6
   0  -2   5 175969. 2523.47   7
   0  -2   5 190776. 2545.97  35
   0   2  -5 197404. 2468.08  31
   0  -2   5 184264. 2676.60   9
   0  -2   5 194363. 2683.34   5
   0  -2   4 869978. 9669.21   5
   0  -2   4 846486. 9473.88   7
   0  -2   4 901827. 9624.66  10
   0  -2   4 910429. 9559.78   1
   0   2  -4 861053. 9487.68  28
   0  -2   4 921022. 9659.27   9
   0   2  -4 886575. 9562.14  31
   0   2  -3 141595. 1879.37  31
   0   2  -3 140959. 1620.36   2
   0   2  -3 138876. 1637.17   6
   0  -2   3 124252. 1627.87   7
   0  -2   2 103.659 20.9294  33
   0   2  -2 134.789 36.1149   2
   0  -2   1 72026.2 828.890   3
   0   2  -1 72393.8 954.293   4
   0  -2   1 71186.9 853.457  33
   0  -2   0 974.370 79.0188  34
   0   2   0 999.805 60.7757   7
   0   2   1 7972.26 269.954  31
   0   2   1 7000.90 204.622   8
   0  -2  -1 7705.65 217.467  34
   0   2   1 7353.11 237.705   7
   0   2   2 62483.1 949.936  31
   0   2   2 60913.8 1072.41   2
   0  -2  -2 62694.4 834.997  32
   0  -2  -2 66908.6 960.399  30
   0   2   2 62267.8 958.276   8
   0   2   2 61960.3 1033.14   7
   0  -2  -2 66389.4 867.963  34
   0  -2  -3 16977.4 339.037  32
   0   2   3 16294.3 514.363   7
   0  -2  -3 17316.0 421.399  29
   0   2   3 16901.9 527.126   4
   0  -2  -3 17216.0 432.049  30
   0   2   3 16981.1 423.613  31
   0   2   3 15727.9 460.896   8
   0  -2  -3 17187.2 334.033  34
   0   2   3 15713.5 503.561   2
   0  -2  -4 13694.2 325.696  32
   0   2   4 14034.6 461.903  35
   0   2   4 13687.4 483.702   8
   0  -2  -4 13900.6 415.836  29
   0   2   4 14079.3 525.854   4
   0   2   4 13927.7 534.213   7
   0   2   5 2196.39 230.829   7
   0   2   5 1904.19 228.036   9
   0  -2  -5 2053.16 171.459  30
   0   2   5 1840.98 193.253   8
   0   2   5 1882.46 177.829  35
   0  -2  -5 2292.66 178.098  29
   0   2   5 2009.04 209.496   4
   0   2   6 3692.83 310.853   4
   0  -2  -6 4382.12 272.852  29
   0   2   6 3941.41 371.823   9
   0   2   6 4027.93 347.873   7
   0  -2  -6 4153.43 267.944  30
   0   2   7 6037.23 465.219   7
   0  -2  -7 6339.65 362.121  30
   0  -2  -7 6393.44 363.427  29
   0   2   7 5743.77 415.948   4
   0   2   7 6237.60 514.221   9
   0  -2  -8 10596.4 513.228  30
   0   2   8 9694.60 643.451   7
   0   2   8 10751.7 748.122   9
   0  -2  -8 10905.0 520.121  29
   0   2   9 756.884 63.2321  24
   0   2   9 680.649 53.5018  26
   0  -2  -9 700.399 135.615  30
   0   2   9 722.392 52.7334  23
   0   2  10 9807.39 254.934  24
   0   2  10 10577.1 282.410  49
   0   2  10 10399.5 237.164  26
   0   2  10 10411.1 228.599  23
   0   2  11 501.141 58.4525  49
   0   2  11 462.573 53.3294  24
   0   2  11 564.144 48.0802  23
   0   2  11 529.138 50.6966  26
   0   2  12 4.42840 21.7855  24
   0   2  12 6.54058 16.9112  49
   0   2  12 0.76599 16.7799  23
   0   2  12-3.84007 16.9757  26
   0   2  13 134.634 23.7502  23
   0   2  13 138.742 30.6745  24
   0   2  14 919.670 49.2543  26
   0   2  14 941.317 59.1526  24
   0   2  15 1321.24 54.6967  24
   0  -3  17 156.963 19.6452  23
   0  -3  16 791.924 51.0631  23
   0  -3  15 1414.03 75.7019  24
   0  -3  15 1335.25 68.9815  26
   0  -3  15 1454.70 78.3741  23
   0  -3  14 590.231 54.8499  24
   0  -3  14 556.388 54.0486  23
   0  -3  14 555.622 50.9338  26
   0  -3  13 1795.91 99.0934  24
   0  -3  13 1754.56 96.9395  19
   0  -3  13 1535.88 86.8664  26
   0  -3  13 1597.69 91.0871  23
   0  -3  12 618.560 59.0340  24
   0  -3  12 552.433 53.0464  26
   0  -3  12 581.527 54.7802  23
   0  -3  12 709.779 61.3741  19
   0   3 -11 2969.52 275.174  30
   0  -3  11 2619.68 114.348  23
   0  -3  11 2809.52 119.876  19
   0   3 -11 3145.60 280.314  32
   0  -3  11 2834.22 118.093  26
   0  -3  11 3104.54 366.471   7
   0  -3  10 20236.2 900.341   7
   0  -3  10 19684.0 929.409   5
   0   3 -10 19610.5 700.261  32
   0   3 -10 19122.2 693.494  30
   0  -3   9 84.2235 47.4635   5
   0  -3   9 143.811 84.8422   9
   0   3  -9 194.307 69.4430  32
   0  -3   9 211.884 86.1609   7
   0  -3   8 13968.6 604.004   1
   0  -3   8 14054.7 685.265   5
   0   3  -8 13481.7 521.165  28
   0  -3   8 14370.0 690.713   9
   0  -3   8 13639.4 614.026   7
   0   3  -8 13548.9 522.605  32
   0   3  -7 8370.39 390.909  28
   0  -3   7 8321.40 447.695  10
   0  -3   7 8026.79 425.707   1
   0  -3   7 8360.85 482.439   9
   0  -3   7 8123.95 473.579   5
   0   3  -7 6967.27 466.988  31
   0  -3   7 8008.58 418.243   7
   0   3  -7 8103.21 375.883  32
   0   3  -6 5266.26 293.176  28
   0  -3   6 5715.67 363.148   5
   0  -3   6 4862.99 304.663   1
   0   3  -6 5281.33 228.733   2
   0   3  -6 5056.69 229.153   6
   0   3  -6 4998.22 375.192  31
   0  -3   6 5259.44 335.678  10
   0  -3   6 5078.04 290.550   7
   0  -3   5 149422. 2236.31  10
   0   3  -5 154126. 2131.52  28
   0   3  -5 147145. 2519.46  31
   0   3  -5 160266. 2011.00   2
   0   3  -5 155897. 1963.04   6
   0  -3   5 137645. 2137.67   1
   0  -3   5 148411. 2029.22   7
   0  -3   5 148866. 2265.80   5
   0  -3   4 13917.9 469.430   1
   0   3  -4 13839.7 638.722  31
   0  -3   4 14776.2 506.869  34
   0  -3   4 14150.9 482.586   5
   0  -3   4 13482.2 356.126   7
   0   3  -4 14993.9 397.574   6
   0  -3   4 13813.6 479.756  10
   0   3  -3 728.262 178.316  31
   0  -3   3 689.775 96.8009   5
   0  -3   3 694.453 94.6228   1
   0   3  -3 720.364 166.625   2
   0  -3   2 2045.60 97.5874  33
   0  -3   2 1978.09 145.141  29
   0   3  -2 2054.14 122.058   4
   0   3  -2 1955.71 375.598   2
   0  -3   1 498530. 5672.98  29
   0  -3   1 514779. 5450.24  33
   0   3  -1 527513. 5650.56   4
   0  -3   1 500952. 5351.49   3
   0  -3   1 546665. 5764.06  34
   0   3  -1 533056. 6730.60   2
   0  -3   0 222280. 2737.70  34
   0  -3   0 226058. 2683.52  29
   0   3   0 221482. 2541.12   7
   0   3   1 144205. 1881.45   7
   0  -3  -1 144854. 1888.45  34
   0  -3  -1 149617. 1878.61  29
   0   3   1 145655. 1811.38   8
   0   3   1 152270. 2212.06   2
   0  -3  -1 144496. 1957.12  30
   0   3   1 149238. 2070.22   4
   0   3   2 183234. 2385.14  31
   0  -3  -2 179086. 2291.25  29
   0   3   2 182749. 2302.12   8
   0  -3  -2 188539. 2261.47  34
   0   3   2 185098. 2419.02   7
   0   3   2 176875. 2562.66   2
   0   3   2 195308. 2580.11   4
   0  -3  -2 187591. 2387.20  30
   0  -3  -3 8879.04 325.810  29
   0  -3  -3 8908.30 276.188  34
   0   3   3 8190.59 331.854  31
   0   3   3 8222.32 337.929   8
   0   3   3 8759.32 393.494   7
   0  -3  -3 8613.46 346.401  30
   0   3   3 7875.62 406.409   2
   0   3   3 8954.42 423.131   4
   0   3   4 10028.2 473.262   7
   0   3   4 10790.5 504.248   4
   0  -3  -4 10728.6 418.937  30
   0  -3  -4 10953.1 397.469  29
   0   3   4 9485.76 417.317   8
   0   3   5 37.1253 51.3007   9
   0  -3  -5-11.0674 29.8926  30
   0   3   5 59.5084 58.7884   7
   0   3   5 23.5898 37.8917   4
   0   3   5 33.4190 33.5214  35
   0   3   6 55.6383 43.0215   7
   0  -3  -6 7.47361 31.4731  29
   0  -3  -6 72.8624 48.7985  30
   0   3   6 78.8937 54.1872   4
   0   3   6 31.3993 57.4257   9
   0   3   7 1925.40 274.540   7
   0   3   7 1877.74 309.186   9
   0   3   7 1961.31 265.168   4
   0  -3  -7 2152.97 233.621  30
   0  -3  -7 2031.96 217.842  29
   0   3   8 785.299 182.440   4
   0   3   8 807.696 187.155   7
   0  -3  -8 837.607 154.585  30
   0   3   8 769.588 209.686   9
   0   3   8 931.528 78.3642  49
   0   3   8 858.261 59.3728  26
   0  -3  -8 972.438 161.828  29
   0   3   9 8703.05 232.646  24
   0   3   9 9536.90 272.410  49
   0   3   9 9269.82 251.919  16
   0   3   9 9239.28 218.463  26
   0   3  10 885.201 73.8499  16
   0   3  10 938.222 84.2330  49
   0   3  10 844.927 70.1694  24
   0   3  10 939.392 65.4313  26
   0   3  11 709.156 69.3628  49
   0   3  11 655.448 60.4711  24
   0   3  11 743.345 57.8901  26
   0   3  12 2343.94 116.163  49
   0   3  12 2596.47 101.720  26
   0   3  12 2255.03 106.361  24
   0   3  13 2566.06 100.606  24
   0   3  13 2429.22 101.444  49
   0   3  14 496.855 36.3386  24
   0  -4  17 267.064 25.0529  23
   0  -4  16 1057.18 60.9311  23
   0  -4  16 1260.90 64.7045  19
   0  -4  15 2225.49 99.0589  19
   0  -4  15 1978.15 85.4580  26
   0  -4  15 2181.11 98.6076  23
   0  -4  14 2962.56 116.161  26
   0  -4  14 3124.11 127.656  23
   0  -4  14 3162.29 127.703  19
   0  -4  13-16.4912 29.3358  23
   0  -4  13 21.1033 21.8132  19
   0  -4  13-16.1501 22.2337  26
   0  -4  12 2272.21 108.340  26
   0  -4  12 2376.62 117.559  14
   0  -4  12 2325.93 113.852  19
   0  -4  12 2321.20 111.933  23
   0  -4  11 2563.83 115.142  23
   0   4 -11 2620.28 269.300  30
   0  -4  11 2524.52 111.469  26
   0  -4  11 2543.09 115.118  19
   0  -4  11 2634.23 122.034  14
   0  -4  10 370.103 138.826   5
   0   4 -10 394.117 103.199  28
   0   4 -10 371.596 100.453  32
   0   4  -9 6110.77 383.274  32
   0  -4   9 6749.27 481.850  10
   0  -4   9 6718.62 514.855   5
   0   4  -9 6026.00 383.569  28
   0   4  -8 21.8386 31.0528  32
   0  -4   8 38.5899 38.4908   1
   0  -4   8 62.4094 56.6890   5
   0   4  -8 87.4852 46.1913  28
   0  -4   8 54.1259 52.1560  10
   0  -4   7 3594.39 252.863   7
   0  -4   7 3818.89 337.205   5
   0   4  -7 3648.65 273.648  28
   0  -4   7 3866.16 323.764  10
   0  -4   7 3844.60 309.044   1
   0   4  -7 2644.69 370.038  31
   0  -4   6 147001. 2352.39  10
   0  -4   6 148969. 2393.21   5
   0   4  -6 146637. 2554.54   2
   0  -4   6 143908. 2278.99   1
   0   4  -6 146233. 2001.91   6
   0   4  -6 149264. 2219.15  28
   0  -4   5 19874.7 462.573   7
   0   4  -5 21249.4 629.801  28
   0   4  -5 20118.0 543.563   6
   0  -4   5 19325.6 656.628   1
   0  -4   5 19824.3 679.863  10
   0  -4   5 20909.3 687.171   5
   0   4  -5 17780.5 971.681  31
   0   4  -5 18629.6 918.885   2
   0  -4   4 12613.9 511.345  10
   0  -4   4 11053.2 464.426   1
   0  -4   4 12095.0 477.314   5
   0  -4   4 11669.8 491.312  34
   0   4  -4 10931.6 761.109  31
   0  -4   3 6440.95 334.393   1
   0  -4   3 6318.95 348.765  34
   0   4  -3 5633.76 536.781  31
   0  -4   3 6541.72 208.260  33
   0   4  -3 6226.98 237.162   4
   0   4  -3 5237.10 611.250   2
   0  -4   2 172754. 2358.87  29
   0  -4   2 174909. 2032.64  33
   0   4  -2 175383. 3230.82  31
   0  -4   2 179809. 2476.32  34
   0  -4   2 176857. 2461.77   1
   0  -4   1 746.259 73.3566  33
   0   4  -1 1040.27 184.106   2
   0   4  -1 1147.16 189.369  31
   0   4  -1 883.716 108.298   4
   0  -4   1 847.349 114.833  34
   0  -4   0 58312.3 1035.10  29
   0  -4   0 56058.2 796.430   3
   0   4   0 57469.2 1101.82   4
   0  -4   0 55543.8 905.309  33
   0  -4   0 58537.6 1060.43  34
   0   4   0 60506.1 1319.48   2
   0  -4  -1 60164.6 1052.09  29
   0   4   1 62204.8 868.268  28
   0   4   1 60737.8 1204.55   4
   0   4   1 57477.3 983.240   7
   0   4   1 58571.8 943.709   8
   0  -4  -1 60022.2 1064.92  34
   0   4   1 60646.3 1305.50   2
   0   4   1 60245.8 1170.60  31
   0  -4  -1 58965.3 1134.57  30
   0  -4  -2 66268.0 1229.01  30
   0  -4  -2 69092.4 1125.63  34
   0   4   2 67822.6 1362.11   4
   0   4   2 66368.5 1180.03   7
   0   4   2 63195.1 1202.86  31
   0  -4  -2 63398.9 1131.70  29
   0  -4  -3 187721. 2504.79  29
   0   4   3 171289. 2799.86   2
   0   4   3 187941. 2657.63   7
   0   4   3 174200. 2541.69  31
   0   4   3 193907. 2881.22   4
   0  -4  -3 184860. 2613.44  30
   0   4   4 6984.44 450.142   4
   0  -4  -4 6945.46 348.419  29
   0   4   4 7250.37 422.044   7
   0  -4  -4 6990.87 388.265  30
   0   4   5 7068.09 527.489   9
   0   4   5 7400.01 471.410   7
   0  -4  -5 7064.75 417.006  30
   0  -4  -5 7387.15 389.129  29
   0   4   5 7758.26 508.519   4
   0  -4  -6 2092.89 239.773  30
   0   4   6 1786.29 262.423   4
   0   4   6 1607.23 236.715   7
   0   4   6 1589.85 274.553   9
   0  -4  -6 1709.36 202.936  29
   0   4   7 4687.83 508.039   9
   0   4   7 4743.93 443.311   7
   0   4   7 4978.22 187.103  49
   0   4   7 4984.73 145.326  26
   0   4   7 5212.50 468.740   4
   0  -4  -7 5039.53 370.791  29
   0  -4  -7 5360.42 411.590  30
   0   4   8 2744.28 141.959  49
   0   4   8 2584.68 129.032  16
   0   4   8 2596.35 115.094  24
   0   4   8 2622.80 107.863  26
   0   4   9 5098.23 183.531  16
   0   4   9 5210.20 200.245  49
   0   4   9 5105.28 156.861  26
   0   4   9 4969.81 166.892  24
   0   4  10 16.3096 23.1196  49
   0   4  10 30.7811 20.1149  16
   0   4  10 60.3787 22.2465  24
   0   4  11 4234.32 132.151  26
   0   4  11 4035.08 160.351  49
   0   4  11 3819.06 137.604  24
   0   4  12 2845.96 119.209  49
   0   4  12 2809.94 106.046  24
   0   4  13 701.028 47.5545  49
   0   4  13 748.242 45.1506  24
   0  -5  17 247.665 24.4884  19
   0  -5  17 302.544 27.7669  23
   0  -5  16 43.6250 17.1442  19
   0  -5  16 29.1067 14.8313  23
   0  -5  15-8.29056 17.6930  19
   0  -5  15-7.21259 20.7544  23
   0  -5  14 712.995 59.3265  23
   0  -5  14 657.091 54.1212  26
   0  -5  14 659.580 58.9998  19
   0  -5  13 8197.44 215.014  26
   0  -5  13 8907.70 235.999  19
   0  -5  13 8710.16 233.311  23
   0  -5  12 6148.01 199.584  14
   0  -5  12 5713.84 186.517  19
   0  -5  12 5476.13 174.829  26
   0  -5  12 5976.80 185.031  23
   0  -5  11 1061.48 75.3243  23
   0  -5  11 1214.96 85.0113  14
   0  -5  11 1032.20 71.8874  26
   0  -5  11 984.236 73.2790  19
   0  -5  10 558.572 159.321   5
   0   5 -10 410.541 114.251  28
   0  -5  10 66.8162 60.8545  10
   0   5 -10 469.537 113.305  32
   0  -5   9 1362.19 236.624   5
   0   5  -9 1198.04 175.306  32
   0  -5   9 1446.50 234.275  10
   0   5  -9 1463.75 200.286  28
   0  -5   8 80.0495 49.9283   1
   0  -5   8 98.0222 73.2804  10
   0  -5   8 87.1428 78.6225   5
   0   5  -8 11.3365 62.9914  32
   0   5  -8 101.653 57.9514  28
   0  -5   7 450.237 116.773   5
   0   5  -7 412.389 102.597  28
   0   5  -7 294.876 71.9321   6
   0  -5   7 356.383 98.0521   1
   0   5  -7 412.429 173.844  31
   0  -5   7 424.749 119.990  10
   0  -5   6 32874.1 974.113   1
   0  -5   6 35044.2 1042.93  10
   0   5  -6 32819.1 902.843  28
   0   5  -6 33937.3 817.280   6
   0  -5   6 36025.4 1041.58   5
   0  -5   5 22872.8 778.134   1
   0  -5   5 22885.1 763.730   5
   0  -5   5 23429.9 815.481  10
   0   5  -5 22644.8 704.906  28
   0   5  -5 23182.7 658.702   6
   0   5  -4 391.040 200.090   2
   0  -5   4 392.967 94.9417   5
   0  -5   4 337.687 100.876  34
   0  -5   4 292.130 80.7870   1
   0  -5   4 367.673 99.6858  10
   0   5  -4 214.229 147.560  31
   0   5  -4 332.981 83.6241  28
   0   5  -3 7368.11 590.351   2
   0   5  -3 8221.72 628.862  31
   0   5  -3 6591.75 292.657   4
   0  -5   3 7585.16 425.369  34
   0  -5   3 7364.85 406.701   1
   0  -5   2 93796.9 1696.43  34
   0  -5   2 90342.4 1632.76  29
   0  -5   2 93646.6 1731.21   1
   0   5  -2 92309.3 1518.79   4
   0   5  -2 99794.5 2095.08   2
   0   5  -2 97693.5 1536.07  28
   0  -5   1 118905. 1624.95  33
   0   5  -1 119215. 1903.25   4
   0  -5   1 122007. 1983.87  34
   0  -5   1 117863. 1917.66  29
   0   5  -1 125148. 1781.48  28
   0  -5   0 124706. 1745.74  33
   0   5   0 129926. 1736.68  28
   0   5   0 132935. 2146.59  31
   0  -5   0 126812. 1980.42  34
   0  -5   0 124414. 1952.20  29
   0   5   0 126435. 2240.73   2
   0   5   0 122109. 2025.26   4
   0  -5  -1 16265.2 547.673  34
   0   5   1 15807.8 591.465  31
   0   5   1 15033.3 656.418   2
   0  -5  -1 15207.3 480.922  33
   0   5   1 15683.6 618.614   4
   0  -5  -1 14765.1 577.089  30
   0  -5  -1 15196.1 536.710  29
   0   5   2 3.77206 19.2445   7
   0   5   2 35.0085 36.6357   2
   0  -5  -2 13.4723 26.8312  29
   0   5   2 10.2845 41.8820  31
   0   5   2 18.2233 44.1775   4
   0  -5  -2 5.65532 35.2188  30
   0   5   3 14516.7 583.113  31
   0   5   3 16128.7 717.263   4
   0   5   3 15793.8 586.585   7
   0   5   3 14582.3 707.710   2
   0  -5  -3 15408.7 632.602  30
   0  -5  -3 15055.0 567.085  29
   0   5   4 20373.8 757.877   7
   0   5   4 20780.5 872.984   4
   0  -5  -4 19865.0 765.327  30
   0  -5  -4 20836.0 706.561  29
   0  -5  -5 88.5602 51.6548  29
   0  -5  -5 66.3344 44.6120  30
   0   5   5 79.2483 72.9331   4
   0   5   5 88.8231 65.1747   7
   0   5   5 20.9958 56.5783   9
   0   5   6 4455.63 174.739  49
   0   5   6 4262.62 474.980   9
   0   5   6 4454.68 135.672  26
   0   5   6 4363.87 166.193  16
   0   5   6 4087.02 424.889   4
   0  -5  -6 4746.54 368.204  29
   0  -5  -6 3896.78 371.795  30
   0   5   7 13.7789 12.8267  26
   0   5   7 13.1392 19.2849  49
   0   5   7-11.2592 22.5911  44
   0   5   7 17.6233 20.1611  16
   0   5   8 344.495 41.1670  26
   0   5   8 354.157 42.3116  24
   0   5   8 302.883 46.0725  16
   0   5   8 315.521 50.0046  49
   0   5   9 469.153 57.9401  49
   0   5   9 375.351 48.6104  16
   0   5   9 453.934 45.0922  26
   0   5   9 426.388 43.5511  24
   0   5  10 56.3810 18.0288  26
   0   5  10 43.5560 17.9038  16
   0   5  10 55.4830 22.8099  49
   0   5  10 83.1415 19.8625  24
   0   5  11 107.433 23.9235  25
   0   5  11 115.763 30.1775  49
   0   5  11 110.928 25.3986  24
   0   5  12 345.097 36.3806  49
   0  -5 -12 351.579 32.7391  18
   0   5  12 383.506 31.4561  24
   0  -6  17 89.6323 17.3817  23
   0  -6  17 111.695 18.4311  19
   0  -6  16 91.7796 20.2571  19
   0  -6  16 113.218 22.0647  23
   0  -6  15 138.352 26.8285  23
   0  -6  15 100.204 20.8920  19
   0  -6  14 1567.57 89.0841  23
   0  -6  14 1428.22 87.2883  19
   0  -6  14 1247.88 74.6482  26
   0  -6  13 25.9513 19.5139  26
   0  -6  13 47.7006 23.2008  23
   0  -6  13 57.3741 29.8489  14
   0  -6  13 49.5645 24.7071  19
   0  -6  12 999.214 72.0947  26
   0  -6  12 967.748 72.7943  23
   0  -6  12 913.594 73.5738  19
   0  -6  12 1089.22 85.0192  14
   0  -6  11 6668.33 197.616  26
   0  -6  11 7016.54 202.019  23
   0  -6  11 7139.75 210.001  19
   0   6 -10 1001.01 177.858  32
   0  -6  10 1004.18 205.337  10
   0  -6  10 985.098 223.145   5
   0   6 -10 1171.90 193.831  28
   0  -6  10 1125.82 80.6949  14
   0  -6  10 1102.90 76.6707  19
   0  -6   9 5937.34 516.224   5
   0   6  -9 6200.94 423.372  32
   0   6  -9 5793.11 426.022  28
   0  -6   9 5949.24 511.330  10
   0  -6   8 4243.17 407.408   5
   0   6  -8 3853.93 473.287  31
   0   6  -8 4193.50 349.982  28
   0  -6   8 3814.64 395.196  10
   0  -6   8 4019.67 376.967   1
   0   6  -7 27.9895 119.663  31
   0   6  -7 101.361 44.9119   6
   0  -6   7 62.3363 61.9180  10
   0  -6   7 83.9433 38.8304   5
   0   6  -7 9.71120 42.9639  28
   0  -6   7 33.8908 41.3412   1
   0  -6   6 53747.1 1411.78   1
   0  -6   6 59872.2 1453.36   5
   0   6  -6 53426.5 1192.72   6
   0  -6   6 56784.6 1503.18  10
   0   6  -6 53855.9 1874.70  31
   0   6  -6 59077.9 1329.40  28
   0   6  -5 54073.7 1224.89  28
   0  -6   5 54178.0 1302.84   5
   0   6  -5 53875.5 1830.52  31
   0  -6   5 51379.7 1341.33   1
   0   6  -5 49784.4 1146.64   6
   0  -6   5 52921.8 1416.33  10
   0   6  -5 51253.5 1677.56   2
   0   6  -4 16009.4 843.508   2
   0  -6   4 14938.3 617.242   5
   0  -6   4 16478.2 739.946  10
   0  -6   4 15203.9 680.947   1
   0   6  -4 15463.8 591.502  28
   0   6  -4 16776.8 926.536  31
   0  -6   4 15306.2 674.771  34
   0   6  -3 3895.79 279.279  28
   0   6  -3 4198.06 400.797   2
   0   6  -3 3550.28 241.188   4
   0  -6   3 4089.27 339.507   1
   0   6  -3 4490.10 444.312  31
   0  -6   3 3937.73 326.409  34
   0   6  -2-35.1576 56.0193   2
   0  -6   2 29.9751 43.7936   1
   0  -6   2 53.7430 33.4401  29
   0  -6   2 23.3880 50.8313  34
   0   6  -2 134.634 49.3944  28
   0   6  -2 69.9194 98.6163  31
   0   6  -2 90.8234 42.4316   4
   0   6  -1 206591. 3374.40   2
   0  -6   1 212787. 3157.19  29
   0   6  -1 214608. 3115.07   4
   0  -6   0 2636.53 247.784  29
   0   6   0 2772.21 293.005   2
   0   6   0 2555.88 256.088   4
   0   6   0 2890.91 270.620  31
   0  -6   0 2674.73 252.523  34
   0   6   1 9234.28 518.539   4
   0  -6  -1 7961.49 370.154  33
   0   6   1 7856.58 508.951   2
   0  -6  -1 8817.95 462.816  29
   0   6   1 8027.35 455.974  31
   0  -6  -2 179.142 67.2072  33
   0   6   2 283.613 103.275   4
   0   6   2 104.296 53.9886  31
   0  -6  -2 248.137 80.8449  29
   0  -6  -2 79.3918 53.1944  30
   0   6   2 303.939 106.509   2
   0  -6  -3 12557.8 556.385  33
   0   6   3 12809.7 700.405   4
   0  -6  -3 11811.0 622.778  30
   0  -6  -3 12122.6 575.801  29
   0  -6  -4 15077.1 747.475  30
   0   6   4 17064.6 854.857   4
   0  -6  -4 16729.3 697.416  33
   0  -6  -4 15784.9 684.213  29
   0  -6  -5 2158.15 104.784  38
   0   6   5 2040.27 113.438  16
   0   6   5 2228.93 342.332   9
   0  -6  -5 1886.58 247.132  33
   0  -6  -5 2051.05 102.655  46
   0   6   5 2213.39 121.962  49
   0   6   5 2235.42 95.0040  26
   0   6   5 2233.06 118.190  44
   0  -6  -6 5122.12 170.279  38
   0   6   6 5528.47 159.642  26
   0   6   6 5405.98 195.105  44
   0   6   6 5423.36 195.340  16
   0  -6  -7 661.805 58.2456  38
   0   6   7 675.059 71.4927  49
   0   6   7 605.293 64.3399  44
   0   6   7 770.753 58.3876  26
   0   6   7 601.349 62.9210  16
   0   6   8 1540.96 81.5024  26
   0   6   8 1407.46 94.1003  16
   0   6   8 1447.76 102.425  49
   0   6   8 1389.89 92.1534  44
   0   6   9 331.531 47.4964  49
   0   6   9 299.577 42.1179  16
   0   6  10 82.4032 27.2291  49
   0   6  10 72.1639 22.4008  25
   0  -6 -10 84.9833 22.9035  18
   0  -6 -11 34.7955 14.3635  18
   0   6  11-1.03931 14.5802  49
   0   6  11 37.9250 14.3646  25
   0  -7  16 79.9519 19.4951  19
   0  -7  16 74.3528 19.5475  23
   0  -7  15 161.338 27.2705  19
   0  -7  15 141.856 26.2221  23
   0  -7  14 632.945 56.3608  23
   0  -7  14 615.262 56.6635  19
   0  -7  13 3813.70 151.078  19
   0  -7  13 3463.33 134.576  26
   0  -7  13 3972.40 159.700  14
   0  -7  13 3777.37 144.426  23
   0  -7  12 1183.47 88.8926  14
   0  -7  12 1100.92 82.1414  19
   0  -7  12 1107.65 76.8476  26
   0  -7  12 1180.17 79.1317  23
   0  -7  11 3645.39 139.026  23
   0  -7  11 3709.78 150.687  19
   0  -7  11 3957.85 159.445  14
   0  -7  10 4362.79 163.003  14
   0  -7  10 4382.92 161.800  19
   0  -7   9 18452.1 932.162   5
   0  -7   9 18122.6 965.457  10
   0  -7   9 18465.8 365.094  19
   0   7  -9 17201.9 758.195  32
   0   7  -9 17946.7 805.888  28
   0   7  -8 1664.13 299.871  31
   0  -7   8 1654.44 259.034   5
   0   7  -8 1657.92 231.044  28
   0  -7   8 1842.74 290.787  10
   0  -7   8 1236.32 226.360   1
   0  -7   7 1557.18 264.104  10
   0   7  -7 1515.21 214.914  28
   0  -7   7 1586.98 239.566   5
   0  -7   7 1497.95 242.610   1
   0   7  -7 1887.21 325.326  31
   0   7  -7 1449.34 189.927   6
   0   7  -6 7725.10 448.369   6
   0  -7   6 7710.75 501.249   5
   0  -7   6 8297.08 590.254  10
   0  -7   6 7876.76 544.053   1
   0   7  -6 9134.19 701.973  31
   0   7  -6 8227.81 487.207  28
   0   7  -5 12223.8 583.115   6
   0  -7   5 13206.5 703.570   1
   0   7  -5 14184.7 764.330   2
   0   7  -5 14585.9 863.392  31
   0   7  -5 13234.2 604.704  28
   0  -7   5 13468.1 738.246  10
   0  -7   4 27054.3 991.881  34
   0   7  -4 30118.2 1110.99   2
   0  -7   4 27911.6 1071.56  10
   0  -7   4 27211.2 1023.64   1
   0   7  -4 26770.7 848.548  28
   0   7  -3 6124.44 369.709  28
   0   7  -3 5971.90 466.525   2
   0  -7   3 6032.92 457.775   1
   0   7  -3 5307.83 331.556   4
   0  -7   3 6104.74 452.598  34
   0  -7   2 103.574 57.6275  34
   0  -7   2 87.7976 55.7261  29
   0   7  -2 130.121 84.9299  31
   0   7  -2 228.305 73.7314   4
   0  -7   2 167.090 78.7978   1
   0   7  -2 121.645 72.4798   2
   0  -7   1 1534.92 213.599  29
   0  -7   1 1913.76 261.050   1
   0   7  -1 1511.61 234.245   2
   0   7  -1 1446.87 198.648   4
   0   7  -1 1618.22 223.636  31
   0  -7   1 1440.52 204.281  34
   0  -7   0 401.879 113.923  29
   0   7   0 535.010 142.761   2
   0   7   0 438.221 112.797   4
   0   7   0 339.963 94.7037  31
   0   7   1 24198.4 891.791  31
   0  -7  -1 27570.3 956.685  29
   0   7   1 24198.0 1010.99   2
   0   7   1 26899.4 1010.89   4
   0   7   2 91.0887 67.3315  31
   0   7   2-46.3072 82.0449   4
   0   7   2 274.961 112.061   2
   0  -7  -2 166.101 83.2725  29
   0   7   3 5167.83 171.512  42
   0  -7  -3 5160.72 416.115  29
   0   7   3 5275.25 179.550  16
   0  -7  -3 5068.03 170.125  46
   0   7   3 4692.38 172.025  49
   0   7   3 4947.83 175.360  44
   0  -7  -3 5166.29 169.767  38
   0   7   4 36781.3 602.206  16
   0  -7  -4 35561.0 574.524  46
   0   7   4 36809.7 611.056  49
   0   7   4 36810.8 605.212  44
   0   7   4 36479.2 577.744  42
   0  -7  -4 37697.1 580.753  38
   0  -7  -5 665.222 62.1400  38
   0  -7  -5 668.122 61.2948  46
   0   7   5 663.096 67.7578  44
   0   7   5 883.098 76.4121  16
   0   7   5 816.673 77.6696  49
   0   7   5 743.633 63.4904  42
   0   7   6 2073.68 123.069  49
   0   7   6 2162.40 121.808  44
   0  -7  -6 1836.63 98.9405  46
   0  -7  -6 1953.81 103.671  38
   0   7   6 2096.57 117.511  16
   0   7   7 2643.30 135.920  49
   0  -7  -7 2472.48 111.300  38
   0   7   7 2652.57 129.395  16
   0   7   7 2596.77 128.659  44
   0  -7  -8 34.5349 17.4188  18
   0   7   8 22.3218 23.8291  49
   0   7   8-4.65661 22.8903  16
   0   7   8 2.68965 15.6803  44
   0   7   9 208.505 35.6555  49
   0  -7  -9 225.199 33.6350  18
   0   7   9 264.345 35.6133  25
   0   7  10 185.448 25.3326  25
   0  -7 -10 150.389 23.1387  18
   0   7  10 218.780 31.2289  49
   0  -8  16 1455.62 61.1948  23
   0  -8  16 1421.94 66.6937  19
   0  -8  15 69.4784 18.1881  23
   0  -8  15 43.0586 17.6240  19
   0  -8  14 86.4885 25.6775  19
   0  -8  14 72.7827 19.3629  23
   0  -8  13 464.262 45.7734  23
   0  -8  13 453.848 52.0351  19
   0  -8  12 125.995 27.0017  23
   0  -8  12 120.615 39.0852  14
   0  -8  12 148.106 31.9124  26
   0  -8  12 128.228 31.4356  19
   0  -8  11 22778.3 434.961  14
   0  -8  11 21996.8 428.456  19
   0  -8  10 2125.10 118.758  19
   0  -8  10 2134.41 116.515  14
   0  -8   9 1027.19 78.1685  14
   0  -8   9 1129.90 84.0216  19
   0  -8   9 1041.07 74.6164  17
   0  -8   8 3846.90 144.696  14
   0  -8   8 4237.30 445.276   1
   0  -8   8 3701.62 151.444  38
   0  -8   8 3973.52 149.114  17
   0   8  -8 4649.10 476.901  31
   0  -8   7-11.2443 53.1705  10
   0  -8   7 38.6428 51.0796   1
   0   8  -7 17.1712 38.1696   6
   0   8  -7 37.7088 103.725  31
   0   8  -7 64.9742 64.2246  28
   0   8  -6 6525.55 448.296   6
   0  -8   6 6919.38 559.082   1
   0   8  -6 7721.50 622.688  31
   0  -8   6 7435.37 600.228  10
   0   8  -6 7167.95 477.879  28
   0   8  -5 11684.0 614.676   6
   0  -8   5 12544.5 744.298   1
   0  -8   5 12382.9 761.716  10
   0   8  -5 12372.4 615.247  28
   0   8  -5 12458.0 698.456   2
   0   8  -5 13279.5 786.941  31
   0   8  -4 3556.63 308.139  28
   0   8  -4 3429.78 384.940  31
   0   8  -4 3187.87 351.978   2
   0  -8   4 2995.59 363.854  10
   0  -8   4 2936.83 356.383   1
   0  -8   3 15502.6 823.647   1
   0   8  -3 16259.3 802.685  31
   0  -8   3 15453.9 855.126  10
   0   8  -3 14596.1 768.275   2
   0   8  -2 773.129 167.438  31
   0   8  -2 655.061 167.352   2
   0   8  -2 792.712 152.530   4
   0  -8   2 686.252 161.468  29
   0  -8   2 710.699 177.671   1
   0  -8   1 1543.49 239.920  29
   0   8  -1 1149.28 198.816  31
   0   8  -1 1350.93 243.540   2
   0  -8   1 1127.60 220.121   1
   0   8  -1 1173.15 197.436   4
   0   8   0 50661.4 1442.16  31
   0   8   0 55112.0 1645.02   2
   0  -8   0 56934.8 1684.34   1
   0  -8   0 55702.4 1545.16  29
   0   8   0 55564.7 1527.55   4
   0   8   1 3016.64 328.458  31
   0  -8  -1 3567.86 147.822  46
   0  -8  -1 4079.38 153.216  45
   0   8   1 3260.93 141.834  44
   0  -8  -1 3516.97 142.954  38
   0  -8  -1 3912.03 149.162  18
   0   8   1 3438.33 136.419  41
   0   8   1 3655.41 147.043  42
   0   8   1 3613.85 141.335  16
   0  -8  -1 3861.24 144.692  11
   0  -8  -1 3566.97 372.541  29
   0  -8  -2 11853.4 281.506  18
   0  -8  -2 10641.6 265.906  45
   0  -8  -2 11318.8 279.955  46
   0   8   2 11767.2 283.647  42
   0   8   2 10607.7 275.975  44
   0   8   2 10828.9 259.708  41
   0   8   2 11791.8 280.483  16
   0  -8  -2 11468.5 278.310  38
   0   8   2 10590.4 271.939  49
   0   8   3 25968.7 463.241  16
   0   8   3 24131.7 457.612  49
   0  -8  -3 24052.3 448.111  46
   0  -8  -3 25566.2 461.055  18
   0   8   3 23937.5 445.022  42
   0   8   3 23173.4 457.069  44
   0  -8  -3 23844.9 442.445  38
   0   8   3 23122.9 421.974  41
   0   8   4 4260.36 172.355  49
   0   8   4 4167.27 172.510  44
   0   8   4 4042.14 157.164  42
   0   8   4 4412.54 171.537  16
   0  -8  -4 4077.99 158.277  38
   0  -8  -4 4054.47 158.401  46
   0  -8  -4 4394.85 168.359  18
   0   8   5 1295.50 90.6332  16
   0   8   5 1288.21 83.4304  42
   0  -8  -5 1406.43 94.2367  18
   0  -8  -5 1235.37 83.3723  46
   0  -8  -5 1351.80 88.0023  38
   0   8   5 1229.91 91.7184  49
   0   8   5 1494.05 101.626  44
   0  -8  -6 1479.71 94.4145  18
   0   8   6 1293.76 92.1213  49
   0   8   6 1305.99 89.3830  16
   0  -8  -6 1170.39 75.0082  46
   0  -8  -6 1261.26 80.3456  38
   0   8   6 1330.56 92.0173  44
   0   8   7 1757.51 97.5194  16
   0   8   7 1692.30 98.7287  49
   0  -8  -7 1526.72 79.9060  38
   0  -8  -7 1783.68 97.7762  18
   0   8   7 1644.71 94.7516  44
   0   8   8 38.9447 19.6874  25
   0  -8  -8-1.83101 16.0784  18
   0   8   8-9.66422 15.1120  44
   0   8   8 5.71389 17.5142  49
   0  -8  -9 3.58635 10.9149  18
   0   8   9 7.88980 12.5307  25
   0   8   9-0.58544 12.6521  49
   0  -9  16 276.708 28.9603  19
   0  -9  15 3409.92 114.995  19
   0  -9  14 238.030 36.7550  19
   0  -9  13 550.002 57.0298  19
   0  -9  12 1601.69 97.9812  19
   0  -9  12 1427.62 86.0963  26
   0  -9  12 1669.78 101.978  14
   0  -9  11 16985.6 368.252  19
   0  -9  11 17287.1 363.811  14
   0  -9  10 109.124 32.7525  14
   0  -9  10 148.078 36.4311  19
   0  -9  10 121.837 27.7019  17
   0  -9   9 1061.15 79.7257  14
   0  -9   9 1062.92 78.2908  17
   0  -9   9 1137.65 86.7864  19
   0  -9   9 1017.88 73.8167  13
   0  -9   8 2087.50 109.145  13
   0  -9   8 2064.77 106.962  14
   0  -9   8 2178.49 110.448  11
   0  -9   8 2054.51 110.354  17
   0  -9   8 2189.40 119.325  38
   0  -9   7 7135.27 223.948  38
   0  -9   7 6850.20 208.768  17
   0  -9   7 6700.46 211.318  46
   0  -9   7 7052.27 211.348  13
   0  -9   7 6783.89 206.092  11
   0  -9   6 24509.6 449.848  17
   0  -9   6 25350.0 461.620  46
   0  -9   6 24832.9 449.971  13
   0  -9   6 25226.6 471.824  38
   0  -9   6 24580.4 447.314  11
   0  -9   5 3092.97 135.480  11
   0  -9   5 2925.61 133.853  18
   0  -9   5 2877.00 130.310  13
   0  -9   5 3131.06 141.293  38
   0  -9   5 3081.66 139.240  46
   0  -9   5 2851.57 130.864  17
   0   9  -4 28212.7 1111.70   2
   0   9  -4 28695.8 484.581  44
   0   9  -4 28959.2 476.263  42
   0  -9   4 30849.8 514.218  18
   0  -9   4 29667.1 508.191  11
   0  -9   4 29168.7 501.322  13
   0  -9   4 29488.7 500.133  17
   0  -9   4 29958.0 519.608  38
   0  -9   4 29668.2 518.043  46
   0   9  -3 102.851 26.9378  44
   0  -9   3 83.4495 26.9887  18
   0  -9   3 56.1078 26.7238  11
   0  -9   3 101.516 26.4636  46
   0   9  -3 55.5771 21.0885  42
   0  -9   3 102.236 30.3406  38
   0  -9   3 110.710 28.4069  17
   0  -9   2 503.516 53.0514  17
   0  -9   2 552.770 58.6644  38
   0   9  -2 575.669 56.7033  42
   0  -9   2 666.861 63.8844  46
   0  -9   2 577.241 59.1013  11
   0  -9   2 694.282 65.9129  45
   0  -9   2 601.338 60.8377  18
   0   9  -2 531.065 54.9456  44
   0  -9   1 30826.1 518.359  11
   0  -9   1 30054.9 525.798  38
   0  -9   1 30806.9 530.942  46
   0  -9   1 31906.4 530.138  18
   0   9  -1 31966.5 524.120  42
   0  -9   1 30397.0 529.194  45
   0   9  -1 30962.3 516.282  41
   0   9  -1 30051.5 516.943  44
   0  -9   1 30010.3 500.039  17
   0   9   0 2544.01 126.386  42
   0   9   0 2427.25 121.973  44
   0  -9   0 2331.72 117.647  11
   0  -9   0 2667.66 127.440  18
   0  -9   0 2671.42 129.706  45
   0   9   0 2484.25 119.347  41
   0  -9   0 2495.22 127.267  46
   0  -9   0 2910.66 135.271  38
   0   9   1 28.3019 17.9181  41
   0  -9  -1 31.2927 24.6702  45
   0   9   1 25.8112 22.5947  44
   0   9   1 24.3896 23.1190  42
   0  -9  -1 55.6389 21.1595  11
   0   9   1 48.4560 23.1002  16
   0  -9  -1 24.0087 18.2194  38
   0  -9  -1 5.28964 17.1789  18
   0  -9  -2 541.501 58.9384  45
   0  -9  -2 596.025 61.3990  18
   0  -9  -2 621.685 63.9591  46
   0   9   2 506.860 55.6931  41
   0   9   2 572.889 58.0276  16
   0   9   2 531.399 59.4796  42
   0   9   2 595.762 66.3635  44
   0  -9  -2 570.042 60.7070  38
   0   9   2 571.308 58.3919  49
   0  -9  -3 14740.8 331.451  38
   0   9   3 13885.9 304.530  41
   0   9   3 14482.3 345.160  44
   0   9   3 15014.0 333.472  49
   0   9   3 15442.2 333.517  16
   0  -9  -3 15348.8 339.958  18
   0  -9  -3 14634.6 330.876  46
   0   9   3 15104.9 331.934  42
   0   9   4 4074.93 153.694  42
   0  -9  -4 4291.86 165.729  18
   0   9   4 4253.89 164.669  49
   0  -9  -4 4054.21 156.074  38
   0   9   4 4198.64 159.726  16
   0  -9  -4 3847.59 151.631  46
   0   9   4 4071.39 169.450  44
   0   9   5 62.1064 24.5389  25
   0  -9  -5 130.665 27.5102  46
   0   9   5 68.5436 26.8319  44
   0   9   5 82.7465 25.9174  49
   0  -9  -5 76.9746 26.8490  18
   0   9   5 85.3425 29.5929  16
   0   9   5 51.2719 20.6465  42
   0  -9  -5 69.4065 22.0341  38
   0  -9  -6 33.5684 20.4480  18
   0   9   6 65.3151 23.9895  16
   0  -9  -6 22.4048 15.6629  38
   0   9   6 75.9489 25.7274  44
   0   9   6 97.2364 25.2564  25
   0   9   6 73.8998 26.8303  49
   0   9   7 2735.57 107.389  49
   0  -9  -7 2678.44 106.186  18
   0   9   7 2523.82 100.180  44
   0   9   8 357.906 31.5531  25
   0   9   8 370.407 34.0089  49
   0  -9  -8 328.722 30.9764  18
   0 -10  15 1695.98 73.9416  19
   0 -10  14 326.719 38.1113  19
   0 -10  13 1427.31 83.8626  19
   0 -10  12 709.167 63.2040  19
   0 -10  11 480.595 54.8321  19
   0 -10  10 135.344 33.1804  14
   0 -10  10 125.979 31.7562  19
   0 -10  10 118.255 28.6851  17
   0 -10   9 20801.3 416.917  19
   0 -10   9 19577.9 386.786  13
   0 -10   9 19513.5 379.548  11
   0 -10   9 21052.3 390.262  14
   0 -10   9 19862.6 393.504  17
   0 -10   8 1649.87 107.470  38
   0 -10   8 1597.14 97.1497  11
   0 -10   8 1672.10 101.630  17
   0 -10   8 1680.32 99.5280  13
   0 -10   7 2552.57 127.263  13
   0 -10   7 2510.18 133.502  38
   0 -10   7 2581.86 130.042  46
   0 -10   7 2642.39 128.431  11
   0 -10   7 2700.02 128.809  17
   0 -10   6 23765.0 450.579  46
   0 -10   6 23245.8 440.361  17
   0 -10   6 23371.9 457.664  38
   0 -10   6 23166.6 441.929  13
   0 -10   6 22585.7 436.549  11
   0 -10   5 43216.7 670.038  18
   0 -10   5 42925.6 684.570  38
   0 -10   5 43534.0 667.387  17
   0 -10   5 43537.5 680.046  46
   0 -10   5 42781.1 669.038  13
   0 -10   5 42776.6 670.681  11
   0  10  -5 41214.0 618.723  42
   0 -10   4 6610.91 209.105  13
   0 -10   4 6991.28 216.345  18
   0  10  -4 6690.34 196.843  42
   0 -10   4 6305.44 203.261  17
   0 -10   4 6547.50 210.240  11
   0 -10   4 6710.98 217.554  46
   0  10  -4 6393.82 194.732  44
   0 -10   4 6655.83 218.679  38
   0 -10   3 2169.96 117.925  18
   0 -10   3 2223.54 119.771  11
   0 -10   3 2226.18 117.490  13
   0 -10   3 2229.97 122.824  38
   0 -10   3 2270.74 117.139  17
   0  10  -3 2229.83 111.883  44
   0 -10   3 2221.52 122.882  46
   0  10  -3 2233.88 114.106  42
   0  10  -3 2334.51 118.440  41
   0 -10   2 87.5220 27.1545  17
   0 -10   2 17.3232 22.1861  46
   0 -10   2 33.8041 22.7579  18
   0 -10   2 50.3316 25.4836  11
   0 -10   2 31.1792 27.4442  13
   0  10  -2 91.7346 32.5675  42
   0 -10   2 51.9009 27.8177  38
   0  10  -2 88.7447 31.4669  44
   0  10  -2 93.7775 33.8128  41
   0 -10   1 24381.7 453.781  18
   0  10  -1 24673.1 450.501  42
   0 -10   1 23494.5 440.759  11
   0  10  -1 23181.9 445.432  44
   0 -10   1 22437.5 410.482  17
   0 -10   1 23673.3 455.883  38
   0  10  -1 24356.4 443.257  41
   0 -10   1 23325.9 458.174  46
   0 -10   1 23732.9 441.185  13
   0 -10   0 7627.91 218.606  11
   0 -10   0 7524.12 231.055  38
   0 -10   0 7860.81 231.527  18
   0  10   0 7813.25 224.883  41
   0  10   0 7680.87 234.114  44
   0 -10   0 7527.34 220.380  13
   0 -10   0 7772.03 234.953  46
   0  10   0 8131.94 233.949  42
   0 -10  -1 8123.53 237.056  38
   0 -10  -1 8275.44 235.596  18
   0  10   1 8268.29 242.976  44
   0 -10  -1 7929.65 239.342  46
   0 -10  -1 7954.44 214.191  11
   0 -10  -1 8003.75 216.229  13
   0  10   1 8662.03 241.247  42
   0  10   1 8200.44 227.272  41
   0  10   1 7913.30 204.613  25
   0 -10  -2 2040.42 111.581  38
   0  10   2 2118.18 105.972  41
   0  10   2 2273.22 116.803  42
   0  10   2 2124.09 119.386  44
   0 -10  -2 2101.19 112.007  18
   0 -10  -2 1944.38 110.618  46
   0  10   2 2150.95 101.165  25
   0  10   2 2157.06 105.133  16
   0  10   3 893.921 66.4174  16
   0 -10  -3 777.547 67.4170  38
   0  10   3 939.844 71.4888  42
   0 -10  -3 867.357 71.0875  18
   0 -10  -3 808.688 67.2687  46
   0  10   3 867.018 63.2987  25
   0  10   3 903.917 76.0067  44
   0  10   3 826.184 64.6120  49
   0  10   3 838.441 63.3848  41
   0  10   4 2430.20 103.602  25
   0  10   4 2375.56 105.531  42
   0 -10  -4 2146.71 101.505  46
   0 -10  -4 2442.69 113.187  18
   0  10   4 2314.60 104.296  49
   0  10   4 2480.75 119.199  44
   0 -10  -4 2204.17 104.220  38
   0 -10  -5 512.756 49.0287  18
   0 -10  -5 459.717 41.0008  46
   0  10   5 513.163 45.3145  49
   0  10   5 538.671 51.3531  44
   0  10   5 462.902 40.4260  42
   0  10   5 528.135 44.9484  25
   0 -10  -5 493.224 43.6932  38
   0  10   6 82.0841 16.9688  49
   0  10   6 95.3156 18.6162  25
   0 -10  -6 75.7121 20.3719  18
   0  10   6 90.3383 18.6869  44
   0 -11  15 3153.22 89.3138  19
   0 -11  14 2259.63 87.1424  19
   0 -11  13 285.438 35.6397  19
   0 -11  12 744.626 60.7600  19
   0 -11  11 1113.44 78.3906  19
   0 -11  10 40.7206 21.8302  19
   0 -11  10 14.1595 15.3619  13
   0 -11   9 893.124 71.1401  17
   0 -11   9 1081.90 81.8384  19
   0 -11   9 898.666 70.3728  13
   0 -11   8 593.130 58.6058  13
   0 -11   8 562.789 56.9067  11
   0 -11   8 580.508 62.0096  38
   0 -11   8 539.540 59.3116  17
   0  11  -8 528.876 49.2447  41
   0 -11   7 0.13581 21.4199  11
   0  11  -7 17.6065 15.3208  41
   0 -11   7 17.0244 20.0171  38
   0 -11   7 3.78485 23.1341  13
   0 -11   7 17.2570 21.0861  17
   0 -11   6 714.034 67.1825  13
   0 -11   6 659.526 63.6564  17
   0 -11   6 642.412 63.6620  11
   0 -11   6 702.800 68.9829  38
   0  11  -6 745.792 63.5873  41
   0 -11   6 753.636 70.1370  46
   0 -11   5 2333.87 120.706  13
   0  11  -5 2266.85 112.952  41
   0 -11   5 2337.29 120.728  11
   0  11  -5 2206.19 103.660  42
   0 -11   5 2243.63 116.718  18
   0 -11   5 2243.77 123.764  38
   0 -11   5 2294.46 118.608  17
   0 -11   5 2208.20 122.330  46
   0  11  -4 757.410 66.6213  41
   0 -11   4 817.981 70.8202  18
   0  11  -4 739.748 62.7761  42
   0 -11   4 793.715 71.6241  11
   0 -11   4 844.259 75.4324  38
   0 -11   4 831.600 72.4683  13
   0 -11   4 894.694 76.6127  46
   0  11  -4 667.339 60.6044  44
   0 -11   4 741.231 68.2097  17
   0 -11   3 13229.8 309.425  18
   0 -11   3 12821.9 294.811  17
   0  11  -3 12777.6 294.737  44
   0  11  -3 13386.5 297.897  42
   0 -11   3 12995.6 318.528  38
   0 -11   3 13366.7 311.567  13
   0 -11   3 12858.5 308.988  11
   0  11  -3 13384.2 303.428  41
   0 -11   3 13004.8 313.108  46
   0 -11   2 7461.67 229.869  46
   0 -11   2 7586.57 219.765  13
   0  11  -2 7577.83 218.708  41
   0 -11   2 7348.45 226.340  38
   0 -11   2 7222.25 216.504  11
   0 -11   2 7087.09 201.161  17
   0  11  -2 8024.70 223.030  42
   0 -11   2 7291.80 221.327  18
   0  11  -2 7647.40 222.151  44
   0  11  -1 5490.75 182.505  42
   0 -11   1 5582.57 192.413  46
   0  11  -1 5466.10 180.144  41
   0 -11   1 5380.90 184.657  18
   0 -11   1 5197.42 175.908  11
   0  11  -1 5405.40 186.895  44
   0 -11   1 5463.35 187.913  38
   0 -11   1 5392.75 179.236  13
   0 -11   0 297.886 40.8466  13
   0  11   0 338.730 45.0801  41
   0 -11   0 268.306 43.6202  18
   0  11   0 285.647 43.2342  42
   0 -11   0 280.125 44.4921  38
   0 -11   0 285.334 44.1440  46
   0 -11   0 277.869 39.0608  11
   0  11   0 269.232 44.0518  44
   0 -11  -1 4024.69 134.141  13
   0 -11  -1 4463.06 163.361  46
   0  11   1 4507.87 167.709  44
   0  11   1 4314.09 151.162  41
   0 -11  -1 4332.75 157.363  18
   0  11   1 4767.48 162.390  42
   0 -11  -1 4424.29 160.764  38
   0 -11  -2 688.967 59.5062  18
   0  11   2 658.370 48.6077  25
   0  11   2 730.231 64.3226  44
   0 -11  -2 647.611 58.4095  46
   0  11   2 671.630 57.7941  42
   0  11   2 616.444 52.4919  41
   0 -11  -2 666.982 58.3933  38
   0 -11  -3 1083.29 67.5605  46
   0  11   3 1160.85 75.8451  44
   0  11   3 1093.30 67.3451  42
   0 -11  -3 1128.30 70.8837  18
   0 -11  -3 1050.73 66.5286  38
   0 -11  -3 982.737 57.0726  37
   0  11   3 1077.74 58.5785  25
   0 -11  -4 36.1312 13.2574  37
   0  11   4 22.6306 12.1073  42
   0  11   4 40.3705 16.6735  44
   0 -11  -4 41.6510 15.1888  38
   0 -11  -4 36.5075 16.1317  18
   0  11   4 31.9963 12.7644  25
   0 -11  -4 30.6192 12.7349  46
   0  11   5-4.24245 11.3625  44
   0 -11  -5-8.12618 11.3795  18
   0 -12  14 295.740 26.8528  19
   0 -12  13 73.8551 17.0190  19
   0 -12  12 1448.25 73.2024  19
   0 -12  11 53.7852 20.0104  19
   0 -12  10 695.602 57.5902  19
   0  12 -10 501.264 38.3615  20
   0 -12  10 604.200 50.3309  13
   0 -12   9 3533.05 129.330  13
   0 -12   9 3667.55 138.893  19
   0  12  -8 5853.19 159.301  41
   0 -12   8 6395.19 192.079  19
   0 -12   8 6380.23 186.236  13
   0 -12   8 6693.85 194.615  17
   0 -12   8 6116.37 181.704  11
   0 -12   7 37.3458 22.5855  11
   0 -12   7-7.69013 23.4470  17
   0 -12   7 21.9159 20.6628  38
   0  12  -7 47.3025 19.3720  41
   0 -12   7-29.6725 26.3213  13
   0 -12   6 6605.96 197.150  11
   0  12  -6 6527.14 184.712  41
   0 -12   6 6596.84 202.714  38
   0 -12   6 6570.55 196.994  17
   0 -12   6 6560.76 195.965  13
   0 -12   6 6669.49 200.205  46
   0 -12   5 4254.86 158.645  11
   0 -12   5 4365.01 163.013  38
   0 -12   5 4059.63 150.102  17
   0  12  -5 4367.98 149.906  41
   0 -12   5 4204.12 151.162  18
   0 -12   5 4317.45 160.147  46
   0 -12   5 4273.92 156.159  13
   0  12  -5 4165.26 135.657  42
   0 -12   4 2308.55 108.616  17
   0 -12   4 2344.87 112.200  18
   0  12  -4 2419.99 111.560  41
   0  12  -4 2330.64 104.400  42
   0 -12   4 2320.81 114.107  11
   0 -12   4 2463.65 116.782  13
   0 -12   4 2334.69 118.087  38
   0  12  -4 2218.06 103.519  44
   0 -12   4 2461.14 118.396  46
   0 -12   3 165.941 34.5385  46
   0 -12   3 145.929 33.1237  11
   0 -12   3 172.279 32.9080  17
   0 -12   3 176.304 33.8331  13
   0  12  -3 158.608 33.9840  41
   0  12  -3 186.674 32.8111  42
   0 -12   3 161.851 33.8782  38
   0  12  -3 192.576 33.8866  44
   0 -12   3 157.375 32.3673  18
   0 -12   2 1698.37 91.8525  11
   0 -12   2 1720.46 91.7603  13
   0  12  -2 1721.33 92.1662  42
   0 -12   2 1750.61 94.0547  18
   0 -12   2 1764.03 98.0473  38
   0  12  -2 1801.72 96.1833  44
   0 -12   2 1804.84 99.2209  46
   0  12  -2 1715.32 92.9646  41
   0 -12   1 384.583 44.8337  18
   0  12  -1 359.991 42.8332  41
   0 -12   1 383.411 42.9876  11
   0 -12   1 382.208 46.1444  46
   0 -12   1 370.245 41.6930  13
   0  12  -1 381.176 43.4298  42
   0  12  -1 399.803 47.0868  44
   0 -12   1 401.074 46.3389  38
   0 -12   0 521.636 50.2930  46
   0 -12   0 521.632 48.9321  18
   0 -12   0 449.584 39.9546  11
   0  12   0 504.889 47.3093  41
   0 -12   0 534.376 50.9440  38
   0 -12   0 489.287 42.0541  13
   0  12   0 559.213 50.1333  42
   0  12   0 544.213 51.6347  44
   0  12   1 219.047 30.1150  42
   0 -12  -1 243.586 32.9950  46
   0  12   1 256.734 35.2333  44
   0 -12  -1 237.722 32.4735  18
   0  12   1 237.058 30.5210  41
   0 -12  -1 230.624 32.1294  38
   0 -12  -2 2706.28 96.1846  46
   0 -12  -2 2635.52 96.1479  18
   0  12   2 2743.14 94.7785  42
   0  12   2 2818.10 103.613  44
   0 -12  -2 2720.34 96.1822  38
   0 -12  -3 1577.46 65.1669  18
   0  12   3 1661.24 68.6689  44
   0 -13  12 768.923 42.6664  19
   0 -13  11 658.572 44.2909  19
   0  13 -10 341.141 26.9415  20
   0 -13  10 374.314 33.0806  13
   0 -13  10 422.769 38.0298  19
   0  13  -9 479.754 36.4034  20
   0 -13   9 502.316 42.1641  13
   0 -13   9 491.852 42.5817  19
   0  13  -8 96.1547 19.7882  20
   0 -13   8 107.714 25.6460  19
   0 -13   8 102.757 23.8242  13
   0  13  -8 71.7758 15.8715  41
   0  13  -7 2652.46 96.8839  41
   0 -13   7 2637.29 104.783  19
   0 -13   7 2786.60 108.139  13
   0  13  -6 3216.07 111.453  41
   0 -13   6 3215.95 121.981  38
   0  13  -6 3145.06 93.5816  43
   0 -13   6 3203.90 116.955  13
   0  13  -5 12752.4 252.233  41
   0 -13   5 13087.1 267.117  38
   0 -13   5 13125.3 264.625  11
   0 -13   5 12894.2 260.877  13
   0 -13   4 273.371 37.6746  11
   0 -13   4 298.153 39.7703  38
   0 -13   4 240.701 31.8951  18
   0  13  -4 253.252 31.1264  44
   0  13  -4 255.228 35.3080  41
   0  13  -4 268.016 32.8113  42
   0 -13   4 283.432 39.1772  13
   0 -13   4 283.368 40.0958  46
   0 -13   3 2528.38 96.8273  18
   0 -13   3 2583.67 104.621  38
   0 -13   3 2627.28 106.647  46
   0  13  -3 2604.54 93.8697  20
   0  13  -3 2723.25 103.627  41
   0 -13   3 2749.54 103.427  13
   0  13  -3 2640.67 97.6022  44
   0  13  -3 2611.55 95.5793  42
   0  13  -2 3943.39 121.780  41
   0 -13   2 3985.20 125.897  38
   0  13  -2 3793.40 117.532  44
   0 -13   2 3764.06 114.302  13
   0 -13   2 3556.14 113.572  18
   0  13  -2 3782.64 116.222  42
   0 -13   2 3845.42 124.986  46
   0  13  -2 3802.06 106.025  20
   0 -13   1 717.319 43.3278  13
   0 -13   1 717.724 46.2618  18
   0  13  -1 764.474 49.1780  41
   0  13  -1 809.520 50.9759  44
   0 -13   1 763.195 51.2203  46
   0 -13   1 776.942 51.7032  38
   0  13  -1 820.119 50.2761  42
   0 -13   0 355.315 32.9287  46
   0 -13   0 405.051 34.3321  38
   0  13   0 382.682 33.2067  44
   0  13   0 350.818 29.3855  41
   0 -13   0 337.616 29.5015  18
   0  13   0 352.738 31.3363  42
   0 -14   8 324.586 27.3052  19
   0  14  -8 348.930 26.6684  20
   0 -14   8 369.356 30.0811  13
   0 -14   7 3970.03 105.622  13
   0  14  -7 4077.78 100.692  20
   0 -14   6 769.220 42.3373  19
   0  14  -6 931.118 46.5011  20
   0 -14   6 910.479 49.1388  13
   0  14  -6 932.495 46.2702  41
   0  14  -5 3956.46 102.604  41
   0  14  -5 3912.58 98.5177  20
   0 -14   5 3897.38 104.577  13
   0 -14   4 254.428 26.2883  38
   0  14  -4 235.222 24.4584  41
  -1  14  -4 5144.82 118.561  41
   1 -14   5 28.4613 13.2968  13
   1 -14   5 50.9315 15.7049  19
  -1  14  -5 39.0108 12.9646  20
  -1  14  -5 57.6369 14.5006  41
   1 -14   6 684.969 43.3539  13
  -1  14  -6 743.624 41.9968  20
   1 -14   6 631.733 40.3273  19
  -1  14  -7-0.10991 9.25309  20
   1 -14   7 19.2714 11.6377  19
   1 -14   7 8.27453 9.53931  13
   1 -14   8 146.302 19.6119  13
   1 -14   8 154.237 19.9691  19
  -1  14  -8 149.661 18.4413  20
  -1  13   0 3.22788 10.8778  44
   1 -13   0 11.0885 9.87632  38
  -1  13   0 12.1858 9.68438  41
   1 -13   0 13.4316 10.7070  18
  -1  13   0 10.2463 10.4825  42
  -1  13  -1 176.600 24.9549  42
  -1  13  -1 163.300 22.9957  44
   1 -13   1 176.104 25.7409  38
   1 -13   1 175.957 26.5776  46
  -1  13  -1 180.365 25.9152  41
   1 -13   1 151.451 23.8944  18
   1 -13   2 3203.51 113.312  46
   1 -13   2 2900.86 97.5500  13
  -1  13  -2 3040.82 96.0382  20
  -1  13  -2 3092.69 109.299  41
  -1  13  -2 3044.41 103.146  42
   1 -13   2 2889.12 106.252  18
   1 -13   2 2952.94 108.255  38
  -1  13  -2 2991.31 99.4390  44
  -1  13  -3 485.807 41.0888  42
  -1  13  -3 457.043 39.7806  20
   1 -13   3 411.567 42.9678  46
  -1  13  -3 492.074 45.9908  41
   1 -13   3 424.402 42.5344  18
   1 -13   3 409.436 43.1604  38
   1 -13   3 447.354 41.7232  13
   1 -13   4 72.1670 23.6910  13
  -1  13  -4 102.498 24.9086  41
  -1  13  -4 67.7797 20.7480  20
   1 -13   4 56.3142 21.2430  18
  -1  13  -4 66.1813 17.4844  42
   1 -13   4 51.6039 20.7122  38
   1 -13   5 411.007 42.2249  18
  -1  13  -5 440.078 41.3268  20
   1 -13   5 355.331 41.8754  38
   1 -13   5 380.051 41.5464  13
  -1  13  -5 351.991 37.7384  41
  -1  13  -6 5.12959 13.1502  20
   1 -13   6 21.9725 16.0945  13
  -1  13  -6 14.3966 13.3858  41
   1 -13   6-15.5352 23.8375  38
   1 -13   6 17.8682 13.2793  18
  -1  13  -6 18.1528 12.0376  43
   1 -13   7 949.770 59.7143  18
  -1  13  -7 943.856 55.2343  41
   1 -13   7 924.055 61.2626  13
  -1  13  -7 967.054 58.7515  20
  -1  13  -7 1013.13 55.0460  43
   1 -13   7 962.437 63.1516  19
   1 -13   8 109.298 23.6195  19
  -1  13  -8 136.927 22.0335  43
  -1  13  -8 94.7443 18.5098  20
   1 -13   8 137.162 24.2342  13
   1 -13   9 2558.84 98.6497  19
   1 -13   9 2335.82 92.0432  13
  -1  13  -9 2348.29 82.3509  20
  -1  13  -9 2602.03 87.6920  43
   1 -13  10 19.4153 10.8397  13
  -1  13 -10 19.4676 12.2756  43
  -1  13 -10 5.38260 8.92335  20
   1 -13  10 36.3661 14.8409  19
   1 -13  11 107.151 16.5608  26
   1 -13  11 128.991 20.4160  19
  -1  13 -11 124.456 17.5679  43
  -1  13 -12 2418.60 67.4919  43
   1 -13  12 2529.61 77.0394  19
  -1  12   3 226.986 23.2975  42
  -1  12   3 248.381 27.7242  44
   1 -12  -3 253.773 28.1997  18
   1 -12  -2 147.056 22.8380  46
  -1  12   2 212.381 29.4893  44
   1 -12  -2 203.186 25.7051  38
  -1  12   2 182.578 26.1385  42
  -1  12   2 163.549 22.8353  41
   1 -12  -2 178.741 27.5434  18
  -1  12   1 33.3685 16.7211  41
  -1  12   1 62.3822 20.9925  42
  -1  12   1 15.7160 17.3886  44
   1 -12  -1 24.8048 13.8859  38
   1 -12  -1 37.1550 18.2477  18
   1 -12  -1 40.0061 17.0222  46
  -1  12   0 2180.89 99.6477  42
   1 -12   0 2140.27 102.093  18
  -1  12   0 2129.27 101.379  44
  -1  12   0 2217.04 101.280  41
   1 -12   0 2122.69 99.3609  38
   1 -12   0 2170.37 101.005  46
  -1  12  -1 1517.03 85.9132  44
   1 -12   1 1516.65 89.3281  46
  -1  12  -1 1547.35 77.9240  20
  -1  12  -1 1628.32 88.1371  42
   1 -12   1 1447.11 86.3682  18
   1 -12   1 1422.92 76.5188  13
   1 -12   1 1496.97 88.7549  38
  -1  12  -1 1570.18 89.0308  41
  -1  12  -2 1461.55 84.8144  44
   1 -12   2 1347.16 80.6633  11
   1 -12   2 1355.51 85.3755  18
   1 -12   2 1484.75 90.7745  46
  -1  12  -2 1449.74 84.7039  42
  -1  12  -2 1553.03 89.1900  41
  -1  12  -2 1494.33 81.1161  20
   1 -12   2 1307.23 85.5125  38
   1 -12   2 1352.84 80.2213  13
   1 -12   3 685.271 61.7363  18
  -1  12  -3 708.876 58.4878  44
  -1  12  -3 688.698 57.7411  42
  -1  12  -3 742.459 62.2600  41
   1 -12   3 760.812 66.2571  38
   1 -12   3 668.533 59.3403  13
   1 -12   3 712.335 61.4010  11
   1 -12   3 815.406 70.0377  46
   1 -12   4 29.5761 19.5890  13
  -1  12  -4 42.9399 24.2646  41
   1 -12   4 66.0373 25.6397  18
   1 -12   4 96.4646 30.7153  46
   1 -12   4 62.5607 25.7835  38
  -1  12  -4 34.1871 17.6040  42
   1 -12   4 29.8116 19.3490  11
   1 -12   5 2524.90 118.888  11
  -1  12  -5 2587.35 114.340  41
  -1  12  -5 2427.85 101.020  42
   1 -12   5 2637.79 125.710  38
   1 -12   5 2455.11 118.505  18
   1 -12   5 2554.76 118.057  13
   1 -12   5 2414.22 122.483  46
   1 -12   6 1257.19 84.2784  18
   1 -12   6 1323.09 89.6502  38
   1 -12   6 1340.83 85.0606  13
  -1  12  -6 1261.07 76.6093  41
   1 -12   7 380.577 45.3994  18
   1 -12   7 373.374 46.6998  38
  -1  12  -7 387.846 41.2098  41
   1 -12   7 434.153 49.2438  13
  -1  12  -8 3856.72 129.499  20
   1 -12   8 3720.80 138.696  13
   1 -12   8 3553.74 136.905  18
   1 -12   8 3961.64 147.304  19
   1 -12   9 8674.55 222.544  19
   1 -12   9 8210.27 209.801  13
  -1  12  -9 7981.75 186.585  20
  -1  12 -10 9.53353 10.0949  20
   1 -12  10 24.4118 17.4644  19
   1 -12  10 9.23271 13.1166  13
   1 -12  11 308.325 36.8906  19
   1 -12  11 286.895 31.8387  13
   1 -12  12 651.422 48.0180  19
   1 -12  12 678.418 46.2558  26
  -1  12 -13 254.768 22.2421  43
   1 -12  13 253.614 26.3663  19
  -1  11   5 248.605 27.9124  44
   1 -11  -5 262.962 26.4868  37
   1 -11  -5 285.399 29.7228  18
  -1  11   5 250.267 24.1880  25
   1 -11  -4 106.136 21.3330  37
  -1  11   4 83.1838 19.2796  42
  -1  11   4 94.5208 19.3954  25
   1 -11  -4 92.8707 22.6746  18
  -1  11   4 55.9023 19.7443  44
   1 -11  -3 66.1205 21.3503  46
  -1  11   3 45.3643 16.3668  41
   1 -11  -3 49.1131 21.3066  18
  -1  11   3 38.6492 22.2639  44
  -1  11   3 78.1442 20.5174  42
   1 -11  -3 40.4811 16.9856  37
   1 -11  -3 65.3180 19.5652  38
  -1  11   3 31.8531 15.2375  25
   1 -11  -2 3762.56 136.528  38
  -1  11   2 4068.07 153.004  44
  -1  11   2 3784.30 121.819  25
   1 -11  -2 3849.29 133.305  37
   1 -11  -2 4058.33 148.904  18
  -1  11   2 4081.75 143.796  42
  -1  11   2 3739.37 135.436  41
   1 -11  -2 3611.68 135.016  46
   1 -11  -1 44.2956 25.8516  46
   1 -11  -1 9.63555 21.8438  18
   1 -11  -1 15.4492 20.2857  38
  -1  11   1 6.38061 21.9303  44
  -1  11   1 23.5041 23.5719  41
   1 -11  -1 17.1085 18.5163  37
  -1  11   1 39.5133 14.9117  25
  -1  11   1-13.1349 18.4164  42
  -1  11   0 374.731 41.7944  20
   1 -11   0 381.934 49.9648  18
   1 -11   0 330.436 42.0666  11
   1 -11   0 360.759 44.1859  37
   1 -11   0 331.368 44.8966  38
  -1  11   0 400.649 50.0025  42
  -1  11   0 399.388 50.6727  44
  -1  11   0 376.418 49.7668  41
   1 -11   0 375.709 49.6190  46
   1 -11   0 334.881 41.6868  13
   1 -11   1 2882.04 124.275  13
  -1  11  -1 2889.84 131.449  41
   1 -11   1 2925.33 135.924  38
   1 -11   1 2916.80 135.550  18
  -1  11  -1 3137.41 139.718  44
   1 -11   1 2894.07 135.961  46
   1 -11   1 2810.76 125.779  11
  -1  11  -1 2979.36 132.874  42
  -1  11  -2 223.017 37.0003  42
   1 -11   2 246.845 43.4252  38
  -1  11  -2 204.786 38.5832  41
   1 -11   2 180.292 38.4056  18
   1 -11   2 232.459 37.6827  13
   1 -11   2 216.392 38.2661  11
   1 -11   2 203.318 40.2899  46
  -1  11  -2 208.377 36.7094  44
   1 -11   3 6887.51 214.887  11
  -1  11  -3 6984.71 205.536  44
   1 -11   3 7214.94 227.326  46
   1 -11   3 7265.69 224.606  18
   1 -11   3 7087.84 216.207  13
   1 -11   3 7035.25 206.150  17
  -1  11  -3 7282.12 215.499  41
   1 -11   3 7105.02 223.940  38
  -1  11  -3 7469.88 213.418  42
   1 -11   4 12563.1 307.627  18
  -1  11  -4 12289.3 289.166  41
   1 -11   4 12282.2 306.639  38
   1 -11   4 12403.6 291.544  17
   1 -11   4 12661.6 298.559  13
   1 -11   4 11972.8 296.607  11
   1 -11   4 12395.8 307.484  46
  -1  11  -4 12070.1 276.721  42
   1 -11   5 4889.67 175.299  17
   1 -11   5 4980.46 181.979  11
   1 -11   5 4892.36 183.876  18
   1 -11   5 5032.01 186.252  38
   1 -11   5 5001.06 181.655  13
  -1  11  -5 4895.17 168.544  41
  -1  11  -5 4696.39 156.228  42
   1 -11   5 4801.87 186.046  46
  -1  11  -6 17971.7 350.331  41
   1 -11   6 18236.6 391.322  46
   1 -11   6 18560.6 388.894  18
   1 -11   6 18887.8 383.229  17
   1 -11   6 18469.6 391.636  38
   1 -11   6 17781.4 370.851  13
   1 -11   6 17978.3 375.481  11
  -1  11  -7 3461.28 130.390  41
   1 -11   7 3573.42 148.387  13
   1 -11   7 3542.95 152.028  18
   1 -11   7 3602.47 157.104  38
   1 -11   7 3556.75 149.309  17
   1 -11   7 3474.44 146.594  11
   1 -11   8 10902.9 269.885  13
   1 -11   8 11000.5 276.947  18
   1 -11   9 47.3194 24.4360  13
   1 -11   9 78.9384 29.7246  19
   1 -11  10 865.623 70.3486  19
   1 -11  10 780.303 63.2691  13
   1 -11  11 5840.50 177.678  19
   1 -11  11 5274.18 158.045  13
   1 -11  12 160.081 31.7904  19
   1 -11  12 125.368 25.1844  26
   1 -11  13 1053.95 63.2970  19
   1 -11  13 956.680 56.9740  26
   1 -11  14 296.418 31.1557  19
   1 -11  14 256.384 25.6866  26
  -1  10   7 18.8720 10.4346  25
   1 -10  -7-6.08204 11.0917  37
  -1  10   6 51.9896 16.3751  25
  -1  10   6 51.5491 14.7886  49
   1 -10  -6 70.8130 20.4073  37
  -1  10   6 69.5887 18.9789  44
   1 -10  -6 34.2035 15.5798  18
  -1  10   5 1786.96 84.3067  25
  -1  10   5 1730.93 91.8815  44
  -1  10   5 1650.22 79.1968  49
   1 -10  -5 1715.30 89.0395  18
  -1  10   5 1671.77 78.5113  42
  -1  10   4 523.624 48.7662  25
   1 -10  -4 472.159 46.3326  38
  -1  10   4 571.122 61.3306  44
  -1  10   4 531.266 52.7580  42
  -1  10   4 509.011 47.2824  49
   1 -10  -4 472.401 52.0066  18
   1 -10  -4 534.870 48.7332  46
   1 -10  -3 8517.75 227.398  46
   1 -10  -3 8730.48 228.882  38
  -1  10   3 9537.89 259.885  44
  -1  10   3 8446.53 222.457  41
   1 -10  -3 9357.40 248.486  18
  -1  10   3 9415.74 240.391  42
  -1  10   3 9307.94 226.643  25
  -1  10   2 3781.84 152.644  42
  -1  10   2 3846.83 162.572  44
  -1  10   2 3756.50 149.076  41
   1 -10  -2 3760.37 155.809  18
  -1  10   2 3753.59 137.200  25
   1 -10  -2 3626.09 148.916  46
   1 -10  -2 3622.61 148.486  38
   1 -10  -1 2846.18 128.312  37
  -1  10   1 2830.55 140.257  44
  -1  10   1 3034.13 138.233  42
  -1  10   1 2951.12 133.113  41
   1 -10  -1 2701.40 131.791  46
  -1  10   1 2775.26 116.591  25
   1 -10  -1 2881.48 137.832  18
   1 -10  -1 2783.55 132.916  38
  -1  10   0 9026.98 256.391  44
   1 -10   0 8565.83 234.049  11
   1 -10   0 8979.70 253.915  46
   1 -10   0 9056.80 253.850  18
   1 -10   0 9227.69 240.474  37
  -1  10   0 9615.86 257.303  42
   1 -10   0 8407.91 228.288  13
  -1  10   0 8588.95 211.761  25
  -1  10   0 8909.70 245.360  41
   1 -10   0 8774.73 250.625  38
   1 -10   1 162.214 35.6381  38
   1 -10   1 153.673 30.7968  37
  -1  10  -1 144.118 35.0714  44
   1 -10   1 178.862 35.9397  13
  -1  10  -1 185.701 39.8406  42
   1 -10   1 135.849 31.9583  11
   1 -10   1 129.661 34.6897  46
  -1  10  -1 121.181 31.2787  41
   1 -10   1 108.694 31.6398  18
   1 -10   2 1373.37 91.5541  13
   1 -10   2 1382.84 92.9833  11
   1 -10   2 1356.03 95.2801  18
  -1  10  -2 1365.69 92.1756  41
  -1  10  -2 1345.11 89.4262  44
   1 -10   2 1213.23 88.9652  38
   1 -10   2 1329.10 87.0575  17
   1 -10   2 1242.33 94.5014  46
  -1  10  -2 1562.20 96.7851  42
   1 -10   3 24034.9 452.361  11
   1 -10   3 24047.8 460.894  18
   1 -10   3 23827.5 446.130  13
   1 -10   3 24233.5 463.736  46
  -1  10  -3 23027.1 424.399  44
  -1  10  -3 24314.9 442.174  41
   1 -10   3 23287.0 437.933  17
   1 -10   3 23904.4 462.369  38
  -1  10  -3 24633.8 439.026  42
   1 -10   4 3528.44 152.678  11
  -1  10  -4 3629.57 141.860  42
   1 -10   4 3969.32 163.866  18
   1 -10   4 3651.21 154.172  13
   1 -10   4 3411.20 154.537  38
   1 -10   4 3603.65 161.983  46
  -1  10  -4 3579.92 143.929  41
   1 -10   4 3634.62 150.668  17
   1 -10   5 246.396 41.2017  18
   1 -10   5 241.165 39.4869  11
  -1  10  -5 231.285 36.3439  41
   1 -10   5 337.171 49.6190  38
   1 -10   5 282.056 45.5679  46
   1 -10   5 226.470 39.2442  13
   1 -10   5 249.079 37.8076  17
  -1  10  -6 137.790 28.1342  41
   1 -10   6 117.766 28.5853  13
   1 -10   6 139.698 31.5704  17
   1 -10   6 197.970 38.6519  46
   1 -10   6 193.865 36.5509  18
   1 -10   6 169.478 35.7736  38
   1 -10   6 137.702 29.8025  11
   1 -10   7 12926.1 317.830  18
   1 -10   7 12345.3 299.404  11
   1 -10   7 12636.4 303.007  17
   1 -10   7 12656.2 317.578  38
   1 -10   7 12513.4 303.314  13
   1 -10   8 2273.02 119.490  17
   1 -10   8 2208.36 117.168  13
   1 -10   8 2181.02 115.337  11
   1 -10   8 2365.51 130.803  38
   1 -10   8 2358.93 124.240  18
   1 -10   9 632.972 62.9402  18
   1 -10   9 655.411 65.4699  19
   1 -10   9 542.169 55.9007  13
   1 -10  10 1432.47 88.1878  13
   1 -10  10 1442.96 94.7632  19
   1 -10  11 1015.63 79.7088  19
   1 -10  12 895.442 69.7253  26
   1 -10  12 965.269 72.4071  19
   1 -10  13 12602.8 263.013  26
   1 -10  13 13620.8 275.880  19
   1 -10  14 274.565 31.0111  26
   1 -10  14 269.478 34.2877  19
   1 -10  15 117.107 20.8688  19
   1  -9  -8 557.482 39.5406  18
  -1   9   8 545.649 39.5330  44
  -1   9   8 591.690 41.4458  25
  -1   9   8 629.846 44.0733  49
   1  -9  -7 4941.86 147.396  18
  -1   9   7 5253.87 151.247  49
  -1   9   7 4939.58 150.967  44
  -1   9   6 6.16962 18.0131  44
  -1   9   6 2.27363 20.1640  49
  -1   9   6 39.5923 23.1576  25
   1  -9  -6 37.8010 19.5351  18
  -1   9   5 1998.60 99.6342  42
  -1   9   5 2175.70 109.400  49
  -1   9   5 2125.97 118.436  44
  -1   9   5 2120.89 106.148  25
   1  -9  -5 2198.77 112.721  18
   1  -9  -4 79.5244 25.6945  46
  -1   9   4 93.3656 29.6405  25
  -1   9   4 62.8737 24.0032  16
   1  -9  -4 72.3961 28.1490  18
  -1   9   4 79.2246 25.9220  49
  -1   9   4 47.6810 25.1563  44
   1  -9  -4 58.2517 21.4430  38
  -1   9   4 69.4762 24.8359  42
  -1   9   4 69.9415 23.8338  41
  -1   9   3 7870.77 222.726  16
   1  -9  -3 7227.31 215.922  38
  -1   9   3 7452.59 218.611  49
  -1   9   3 8014.28 219.476  25
  -1   9   3 7201.15 213.191  41
  -1   9   3 7563.59 224.582  42
   1  -9  -3 7279.21 216.877  46
  -1   9   3 7708.09 241.695  44
   1  -9  -3 7590.44 232.292  18
   1  -9  -2 8454.71 243.595  18
  -1   9   2 8618.48 226.460  25
   1  -9  -2 8148.29 234.325  38
  -1   9   2 8436.82 229.302  16
  -1   9   2 8395.77 240.510  42
  -1   9   2 8554.51 253.353  44
  -1   9   2 7939.29 229.020  41
   1  -9  -2 8253.34 237.157  46
  -1   9   1 9418.07 234.443  25
   1  -9  -1 9748.53 250.704  11
  -1   9   1 9501.49 263.896  44
   1  -9  -1 9208.29 252.002  38
  -1   9   1 9127.68 247.804  41
  -1   9   1 9600.22 257.756  42
   1  -9  -1 9042.26 253.087  46
  -1   9   1 9411.57 237.452  16
   1  -9  -1 9218.96 255.151  18
   1  -9   0 1507.68 97.4450  18
  -1   9   0 1525.37 84.1335  25
   1  -9   0 1553.48 97.8126  38
   1  -9   0 1551.00 94.1307  13
   1  -9   0 1559.63 96.0244  11
  -1   9   0 1592.16 98.9835  42
   1  -9   0 1503.31 97.6988  46
  -1   9   0 1593.01 95.9938  41
  -1   9   0 1516.33 98.8492  44
   1  -9   1 90.5346 28.6920  46
  -1   9  -1 103.531 30.6329  44
   1  -9   1 156.415 34.2783  11
   1  -9   1 141.533 31.3736  18
   1  -9   1 109.526 27.7537  37
   1  -9   1 109.246 30.9832  13
   1  -9   1 62.1354 21.7551  17
   1  -9   1 115.606 27.8210  38
  -1   9  -1 165.807 34.1322  42
  -1   9  -1 138.704 33.0612  41
   1  -9   2 34921.8 568.342  11
   1  -9   2 36266.4 582.378  18
   1  -9   2 34955.0 576.373  38
  -1   9  -2 34097.1 552.912  41
   1  -9   2 35624.4 562.097  17
   1  -9   2 35071.4 580.500  46
   1  -9   2 33662.0 556.323  13
  -1   9  -2 32947.7 543.955  44
  -1   9  -2 35202.8 560.441  42
   1  -9   3 7508.79 220.037  11
  -1   9  -3 6794.29 195.565  44
   1  -9   3 7484.82 217.853  13
   1  -9   3 7509.29 215.143  17
  -1   9  -3 7346.50 207.980  41
   1  -9   3 7434.77 224.974  38
  -1   9  -3 7689.30 209.523  42
   1  -9   3 7722.35 226.101  18
   1  -9   3 7172.42 220.107  46
   1  -9   4 4469.01 163.523  17
   1  -9   4 4466.80 166.821  11
   1  -9   4 4564.64 168.016  13
   1  -9   4 4703.86 174.964  18
   1  -9   4 4386.99 172.320  38
   1  -9   4 4374.64 168.373  46
  -1   9  -4 4411.48 151.739  42
  -1   9  -4 4567.71 157.356  41
   1  -9   5 2924.95 137.052  18
   1  -9   5 2902.72 137.304  38
   1  -9   5 2677.70 126.781  13
  -1   9  -5 2710.95 117.101  41
   1  -9   5 2838.63 130.282  17
   1  -9   5 2715.55 128.276  11
   1  -9   5 2709.28 133.812  46
   1  -9   6 6039.07 194.257  13
   1  -9   6 5854.53 200.230  46
   1  -9   6 5814.39 191.141  11
   1  -9   6 5825.65 204.783  38
   1  -9   6 5869.81 191.160  17
  -1   9  -6 5478.57 167.817  41
   1  -9   6 5890.81 199.754  18
   1  -9   7 10067.1 258.210  13
   1  -9   7 9425.85 254.499  17
   1  -9   7 9636.27 265.983  38
   1  -9   7 9347.71 249.346  11
   1  -9   7 9178.24 260.892  18
   1  -9   8 24803.3 469.836  38
   1  -9   8 24125.1 457.025  18
   1  -9   8 23806.3 441.863  13
   1  -9   8 24345.9 451.046  17
   1  -9   8 23905.0 440.331  11
   1  -9   9 16552.8 362.619  19
   1  -9   9 16124.5 342.884  13
   1  -9   9 16797.0 364.090  18
   1  -9  10 249.475 39.6041  13
   1  -9  10 223.461 42.5743  19
   1  -9  11 257.921 39.6605  19
   1  -9  11 196.855 32.6771  23
   1  -9  12 974.454 74.6900  26
   1  -9  12 933.178 67.0401  23
   1  -9  12 953.731 74.0879  19
   1  -9  13 7748.52 207.208  19
   1  -9  13 7260.54 201.956  26
   1  -9  13 7545.77 191.469  23
   1  -9  14 3861.17 129.523  26
   1  -9  14 4110.82 136.914  19
   1  -9  14 4087.28 125.341  23
   1  -9  15 53.5931 15.5989  26
   1  -9  15 48.4508 17.0856  19
   1  -9  15 39.7175 14.0291  23
  -1   8   9 1038.56 61.6083  49
   1  -8  -9 914.711 52.3707  18
  -1   8   9 922.711 51.8985  44
  -1   8   9 998.187 56.1250  25
   1  -8  -8 67.8715 21.9564  18
  -1   8   8 125.288 28.2556  49
  -1   8   8 104.350 23.6920  25
  -1   8   8 73.2161 22.1218  44
  -1   8   7 2657.60 124.911  44
  -1   8   7 2532.99 120.824  49
  -1   8   7 2718.00 119.662  25
   1  -8  -7 2504.85 115.116  18
  -1   8   6 16310.4 345.520  16
   1  -8  -6 16188.8 341.798  18
  -1   8   6 16284.1 338.196  25
  -1   8   6 15514.4 353.968  44
  -1   8   6 15732.2 349.622  49
  -1   8   5 663.593 66.5431  16
  -1   8   5 615.137 61.7923  25
  -1   8   5 621.142 58.5293  42
  -1   8   5 656.277 68.4218  49
  -1   8   5 587.084 65.0849  44
   1  -8  -5 612.241 62.7488  18
  -1   8   4 32.6437 16.8214  42
  -1   8   4-3.65895 18.8673  41
   1  -8  -4 3.05255 15.2441  46
  -1   8   4 43.9466 21.6660  49
   1  -8  -4-13.8613 24.7262  18
   1  -8  -4 9.48081 18.2420  38
  -1   8   3 6421.83 201.912  16
  -1   8   3 5849.76 193.848  42
  -1   8   3 6139.18 211.141  44
   1  -8  -3 6363.95 205.297  18
  -1   8   3 5970.68 190.699  41
   1  -8  -3 6062.78 194.856  46
  -1   8   3 6105.70 199.224  49
   1  -8  -3 5821.95 193.173  38
  -1   8   2 10004.2 255.467  41
   1  -8  -2 10192.6 262.131  46
  -1   8   2 10688.7 261.134  16
  -1   8   2 10584.3 277.339  44
   1  -8  -2 10880.9 271.397  18
   1  -8  -2 10050.3 256.409  38
  -1   8   2 10832.1 269.418  42
   1  -8  -1 533.666 54.0909  38
   1  -8  -1 524.907 54.9692  46
   1  -8  -1 548.686 54.5670  45
  -1   8   1 507.660 54.8521  44
  -1   8   1 523.158 55.5419  42
  -1   8   1 307.766 108.977  31
  -1   8   1 566.797 53.7638  16
   1  -8  -1 599.127 58.3937  18
  -1   8   1 563.055 55.1320  41
   1  -8   0 572.999 166.287   1
  -1   8   0 522.269 137.022   4
  -1   8   0 479.504 127.447  31
   1  -8   0 436.296 134.173  29
   1  -8   1 1974.33 295.620   1
  -1   8  -1 1851.26 247.503   4
  -1   8  -1 2904.42 337.029   2
   1  -8   1 2064.46 286.368  29
  -1   8  -1 1838.31 257.920  31
   1  -8   2 1472.34 238.121  29
   1  -8   2 1876.61 288.534   1
  -1   8  -2 1315.60 216.250   2
  -1   8  -2 1712.37 244.867   6
  -1   8  -2 1547.89 234.699  31
  -1   8  -3 314.329 110.397  31
   1  -8   3 267.884 120.014   1
  -1   8  -3 266.692 98.7747   6
  -1   8  -3 474.706 130.275   2
  -1   8  -4 14.1473 40.8049  31
  -1   8  -4 25.8468 32.9959  28
  -1   8  -4 55.2523 36.9853   6
   1  -8   4-23.7687 69.8789   1
  -1   8  -5 5537.81 389.816  28
   1  -8   5 5845.48 533.341  10
  -1   8  -5 5705.00 447.280  31
  -1   8  -5 5302.96 420.994   6
  -1   8  -5 5503.75 369.308  32
   1  -8   5 5635.74 509.239   1
  -1   8  -6 642.300 148.982  31
   1  -8   6 826.126 203.330  10
  -1   8  -6 761.152 164.809   6
   1  -8   6 536.009 157.757   1
   1  -8   6 646.107 167.243   5
  -1   8  -6 628.569 135.990  28
  -1   8  -6 739.826 142.733  32
   1  -8   7 4242.84 439.086   5
  -1   8  -7 4526.94 381.983   6
  -1   8  -7 4265.11 365.642  28
   1  -8   7 5330.32 510.893   1
  -1   8  -7 4124.24 347.804  32
  -1   8  -7 4586.23 399.401  31
   1  -8   7 5196.92 509.688  10
   1  -8   8 6433.26 566.215   5
   1  -8   8 6831.04 199.036  11
   1  -8   8 6910.51 201.834  13
   1  -8   8 7075.51 208.391  17
   1  -8   8 6840.39 212.890  18
   1  -8   8 6905.07 591.449   1
   1  -8   8 7289.83 207.610  14
   1  -8   9 11763.2 288.166  19
   1  -8   9 11404.4 285.362  18
   1  -8   9 11079.1 265.936  13
   1  -8  10 24436.5 452.144  14
   1  -8  10 23268.7 441.820  19
   1  -8  11 1824.96 105.357  19
   1  -8  11 1757.75 98.4787  23
   1  -8  12 4852.23 164.821  23
   1  -8  12 4846.13 170.640  19
   1  -8  12 4517.62 167.120  26
   1  -8  13 126.776 29.2020  23
   1  -8  13 77.3517 26.2552  26
   1  -8  13 139.537 30.2404  19
   1  -8  14 1340.88 79.2180  19
   1  -8  14 1576.29 83.8325  23
   1  -8  14 1388.69 79.1769  26
   1  -8  15 39.0624 15.9967  19
   1  -8  15 18.8478 12.7726  23
   1  -8  15 21.8375 12.2045  26
   1  -8  16 858.673 46.4695  19
   1  -8  16 889.925 48.7895  23
   1  -7 -10 3097.45 99.8373  18
  -1   7  10 3325.24 104.816  25
  -1   7  10 3201.13 114.048  27
  -1   7  10 3521.22 121.513  49
  -1   7   9 2698.37 109.011  25
  -1   7   9 2488.25 106.770  44
   1  -7  -9 2524.72 104.054  18
  -1   7   8 187.801 38.9684  49
  -1   7   8 217.829 35.8264  25
  -1   7   8 277.289 41.4443  44
   1  -7  -8 182.597 31.8966  18
   1  -7  -7 1208.67 83.7626  18
  -1   7   7 1227.06 86.7714  16
  -1   7   7 1290.58 94.8588  49
  -1   7   7 1124.56 86.7452  44
  -1   7   6 15845.7 363.952  49
  -1   7   6 15666.1 369.711  44
  -1   7   6 15953.0 354.623  16
   1  -7  -6 16036.3 346.134  18
  -1   7   5 7114.66 222.036  16
  -1   7   5 7225.28 229.610  49
  -1   7   5 7049.46 234.093  44
   1  -7  -5 7314.22 220.113  18
  -1   7   5 6993.95 207.693  42
   1  -7  -4 100.832 26.0752  38
  -1   7   4 64.0337 22.7376  42
  -1   7   4 74.2376 24.4049  44
  -1   7   4 110.867 26.2790  16
  -1   7   4 142.817 30.2532  49
   1  -7  -4 138.665 31.8966  18
   1  -7  -4 85.7218 21.8820  46
   1  -7  -3 3673.04 362.181  29
  -1   7   3 3752.42 155.788  44
  -1   7   3 3641.97 390.293   4
  -1   7   3 3864.59 148.458  16
   1  -7  -3 3937.27 150.744  18
   1  -7  -3 4092.31 418.470   1
  -1   7   3 3949.22 148.533  42
   1  -7  -2 8447.24 540.441  29
  -1   7   2 8507.68 551.458  31
  -1   7   2 8203.66 566.760   4
   1  -7  -2 8480.74 593.897   1
   1  -7  -1 25848.4 947.626  29
   1  -7  -1 25983.1 1025.20   1
  -1   7   1 23096.4 905.235  31
  -1   7   1 26570.3 988.635   4
  -1   7   0 14137.2 672.723   4
  -1   7   0 12887.0 642.383  31
   1  -7   0 13799.7 725.463   1
   1  -7   0 13408.8 670.790  29
  -1   7   0 11494.1 651.425   2
  -1   7  -1 1324.76 207.622   2
  -1   7  -1 1349.06 200.417  31
  -1   7  -1 1320.83 190.581   4
   1  -7   1 1463.63 231.431   1
   1  -7   1 1351.45 209.851  29
   1  -7   2 1904.23 247.861  29
  -1   7  -2 1726.42 226.628   2
  -1   7  -2 1877.00 235.918  31
   1  -7   2 2116.97 278.991   1
  -1   7  -3 10194.8 554.032  31
   1  -7   3 9692.27 601.081   1
  -1   7  -3 9638.27 448.331  28
  -1   7  -3 9524.39 527.606   6
  -1   7  -3 8517.63 485.370   2
  -1   7  -4 20341.4 781.943   6
  -1   7  -4 22525.0 861.215  31
  -1   7  -4 21961.5 733.831  28
   1  -7   4 21568.6 923.346   1
  -1   7  -5 5357.00 388.666   6
   1  -7   5 5990.95 473.010   5
   1  -7   5 6611.27 523.307  10
  -1   7  -5 5663.44 375.023  28
  -1   7  -5 5907.01 432.235  31
   1  -7   5 5334.25 461.737   1
  -1   7  -6 12311.1 556.941  32
  -1   7  -6 13093.2 617.478   6
   1  -7   6 14037.9 749.034   5
   1  -7   6 13382.1 754.008  10
  -1   7  -6 12865.8 600.399  28
   1  -7   6 13659.3 756.702   1
  -1   7  -6 13487.9 664.031  31
   1  -7   7 1696.11 278.715   5
   1  -7   7 1178.06 228.290   1
  -1   7  -7 1161.77 187.302  28
   1  -7   7 1217.76 227.616  10
  -1   7  -7 1225.37 195.726  31
  -1   7  -7 1326.29 185.245  32
  -1   7  -7 1065.15 172.081   6
   1  -7   8 444.277 145.760   1
  -1   7  -8 502.928 122.313  32
  -1   7  -8 562.722 136.585  28
   1  -7   8 373.958 133.555  10
   1  -7   8 571.003 164.678   5
  -1   7  -8 345.351 97.2692   6
   1  -7   9 3867.01 431.553  10
  -1   7  -9 3377.07 333.908  28
  -1   7  -9 3782.76 343.203  32
   1  -7   9 3547.83 144.339  14
   1  -7   9 3480.17 409.601   1
   1  -7   9 3557.01 429.700   5
   1  -7   9 3259.81 137.766  19
   1  -7  10 12438.6 293.069  19
   1  -7  10 13846.7 314.429  14
   1  -7  11 1546.40 100.660  14
   1  -7  11 1465.88 92.2111  23
   1  -7  11 1504.81 92.8024  19
   1  -7  12 7.24352 16.5893  23
   1  -7  12 15.7837 19.4732  19
   1  -7  12 15.9777 17.2856  26
   1  -7  13 2492.95 118.251  26
   1  -7  13 2530.27 118.494  19
   1  -7  13 2587.90 119.488  23
   1  -7  14-26.4391 20.5416  19
   1  -7  14-8.50297 20.7018  26
   1  -7  14 12.4483 17.6415  23
   1  -7  15 467.564 44.0906  23
   1  -7  15 418.296 40.2701  19
   1  -7  15 426.070 40.9564  26
   1  -7  16 135.440 20.1509  26
   1  -7  16 179.759 22.9845  19
   1  -7  16 169.409 25.2087  23
  -1   6  11 12.7044 13.2863  27
  -1   6  11 11.3755 13.4768  49
  -1   6  11-6.13372 12.1695  25
   1  -6 -10 28.9584 18.4509  18
  -1   6  10 4.41279 19.2024  49
  -1   6  10 10.3887 12.6459  24
  -1   6   9 2040.74 88.7680  24
   1  -6  -9 1878.26 97.8939  18
  -1   6   9 2020.29 103.140  25
  -1   6   9 1861.37 102.130  44
  -1   6   9 2007.88 113.308  49
  -1   6   8 73.6106 25.1152  44
  -1   6   8 33.2001 20.3857  16
  -1   6   8 51.1897 29.7931  49
  -1   6   7 2251.53 129.696  49
  -1   6   7 2358.89 124.160  16
  -1   6   7 2332.54 128.257  44
  -1   6   6 565.062 64.1789  49
  -1   6   6 396.289 52.2971  44
  -1   6   6 456.632 54.3390  16
  -1   6   5 4205.10 169.752  44
   1  -6  -5 3983.52 363.057  33
  -1   6   5 3968.71 156.772  16
   1  -6  -5 3690.48 362.740  30
  -1   6   5 3940.05 162.601  49
  -1   6   4 1351.80 235.963   4
   1  -6  -4 1249.86 192.226  33
   1  -6  -4 1374.54 207.316  29
  -1   6   3 33803.7 1102.82  31
   1  -6  -3 33110.6 1015.34  29
  -1   6   3 35845.0 1179.82   4
   1  -6  -3 34589.3 991.107  33
   1  -6  -2 106953. 1857.59  33
  -1   6   2 109622. 2138.00   4
  -1   6   2 103893. 2038.02  31
  -1   6   1 5656.65 404.645   4
   1  -6  -1 5167.67 315.593  33
   1  -6  -1 5682.24 423.051   1
  -1   6   1 5252.03 375.678  31
   1  -6  -1 5568.22 376.914  29
   1  -6   0 326.374 97.6497   1
   1  -6   0 220.887 76.6271  29
  -1   6   0 215.937 74.7925   4
  -1   6   0 164.124 63.0700  31
  -1   6   0 367.081 96.8391   2
   1  -6   0 406.115 85.4054  33
  -1   6  -1 21799.1 754.078  31
  -1   6  -1 19694.7 741.942   2
   1  -6   1 22003.1 825.516   1
   1  -6   1 22602.9 630.155  33
  -1   6  -1 22390.3 744.233   4
   1  -6   1 22026.2 783.294  29
  -1   6  -2 11561.7 534.100   2
   1  -6   2 12347.1 581.689  29
  -1   6  -2 11465.4 495.707   4
  -1   6  -2 12890.1 463.966  28
   1  -6   2 13783.0 644.070   1
  -1   6  -2 12845.0 573.602  31
   1  -6   3 4357.88 359.979   1
  -1   6  -3 4368.08 306.664   2
  -1   6  -3 4034.05 304.482   6
  -1   6  -3 4361.14 283.642  28
  -1   6  -3 4798.08 350.923  31
  -1   6  -4 237.152 71.2146   2
  -1   6  -4 419.945 92.4971  28
  -1   6  -4 253.732 77.6997   6
   1  -6   4 158.744 70.9202   1
  -1   6  -4 354.183 111.131  31
   1  -6   5 16354.8 759.041  10
   1  -6   5 15032.2 718.032   1
  -1   6  -5 15950.0 688.165  31
  -1   6  -5 14603.3 579.884  28
   1  -6   5 15578.4 734.378   5
  -1   6  -5 13857.0 581.828   6
  -1   6  -6 4583.17 332.094  28
  -1   6  -6 4136.38 300.505  32
   1  -6   6 4751.96 402.389  10
  -1   6  -6 5169.54 386.162  31
   1  -6   6 4475.79 398.636   1
  -1   6  -6 4737.20 332.593   6
   1  -6   6 4981.24 421.515   5
  -1   6  -7 2569.79 256.303  28
  -1   6  -7 2845.76 279.892  31
   1  -6   7 2412.98 300.472  10
   1  -6   7 2618.50 313.801   1
   1  -6   7 2718.56 326.947   5
  -1   6  -7 2409.96 239.258  32
  -1   6  -7 2740.08 255.005   6
   1  -6   8 16458.5 831.539   1
  -1   6  -8 15231.1 662.780  28
   1  -6   8 16395.3 861.004   5
   1  -6   8 15551.8 793.623  10
  -1   6  -8 15221.6 646.545  32
   1  -6   9 12078.6 728.405   1
  -1   6  -9 11685.1 586.866  32
   1  -6   9 12256.8 780.712   5
  -1   6  -9 11535.0 592.072  28
   1  -6   9 12323.8 721.310  10
   1  -6  10 708.682 62.2627  19
   1  -6  10 800.860 70.1636  14
   1  -6  11 654.606 60.8204  19
   1  -6  11 634.646 64.8202  14
   1  -6  11 548.357 55.2080  26
   1  -6  11 573.960 57.0906  23
   1  -6  12 184.514 33.5606  26
   1  -6  12 209.992 35.7151  19
   1  -6  13 8677.05 232.716  26
   1  -6  13 9008.98 241.913  23
   1  -6  13 8735.53 230.409  19
   1  -6  14 1651.32 95.2680  23
   1  -6  14 1557.41 88.2405  26
   1  -6  14 1623.55 88.4027  19
   1  -6  15 2287.30 95.3886  19
   1  -6  15 2126.45 93.2149  26
   1  -6  15 2371.43 101.901  23
   1  -6  16 928.346 51.7774  26
   1  -6  16 1015.51 53.3576  19
   1  -6  16 1014.86 59.1425  23
   1  -6  17 783.995 41.2731  23
  -1   5  12 1961.81 73.6224  24
  -1   5  12 1959.49 89.9988  49
  -1   5  11 236.734 31.6672  25
  -1   5  11 257.136 38.4502  27
  -1   5  11 295.927 44.4046  49
  -1   5  11 294.617 35.9150  24
   1  -5 -11 253.908 33.7137  18
  -1   5  10 15574.3 301.061  24
  -1   5  10 15148.9 310.716  25
  -1   5  10 16119.0 355.001  49
  -1   5   9 630.805 54.3033  24
  -1   5   9 649.790 64.2776  16
  -1   5   9 636.173 63.1480  44
  -1   5   9 667.510 69.8691  49
  -1   5   9 628.319 51.2299  26
  -1   5   8 1182.46 94.4038  49
  -1   5   8 1129.40 69.7562  26
  -1   5   8 1059.82 83.6970  44
  -1   5   8 1058.06 83.3027  16
  -1   5   8 1015.62 69.4030  24
  -1   5   7 1558.53 79.7485  26
  -1   5   7 1447.87 95.5545  16
  -1   5   7 1479.31 103.202  49
  -1   5   7 1402.07 80.4593  24
  -1   5   7 1372.04 96.2883  44
  -1   5   6 51695.9 751.423  16
   1  -5  -6 50594.1 1328.56  29
   1  -5  -6 48405.9 1263.82   3
   1  -5  -6 50473.9 1380.91  33
  -1   5   6 50610.3 1533.82   4
  -1   5   6 52945.2 777.947  49
   1  -5  -5 4506.76 364.876  30
   1  -5  -5 4603.79 365.206  33
   1  -5  -5 4250.42 318.767   3
  -1   5   5 4238.40 400.681   4
   1  -5  -5 4314.51 341.847  29
  -1   5   5 4085.38 389.639  35
   1  -5  -4 469.118 112.475  30
  -1   5   4 347.862 113.428   9
  -1   5   4 425.764 125.991   4
   1  -5  -4 348.466 85.5137   3
   1  -5  -4 321.003 98.3919  33
   1  -5  -4 367.852 98.9647  29
  -1   5   3 48779.2 1276.13   4
   1  -5  -3 47193.9 1005.03   3
   1  -5  -3 43859.9 1120.09  30
   1  -5  -3 48191.6 1114.33  33
  -1   5   3 44233.1 1174.00  31
   1  -5  -3 45529.9 1086.99  29
   1  -5  -2 90060.7 1588.10  33
   1  -5  -2 87625.8 1672.65  30
  -1   5   2 92435.3 1742.01  31
   1  -5  -2 95403.2 1655.69  29
   1  -5  -2 94164.8 1470.63   3
  -1   5   2 97261.4 1829.07   4
   1  -5  -1 229.941 51.6581   3
  -1   5   1 317.275 87.9008   4
  -1   5   1 296.950 79.7202  31
  -1   5   1 251.331 76.8288   2
   1  -5  -1 280.738 64.8473  33
  -1   5   0 14078.4 381.562  28
   1  -5   0 13199.6 383.021   3
   1  -5   0 13612.8 452.529  33
  -1   5   0 12392.6 538.884   2
   1  -5   0 14521.1 594.027   1
  -1   5   0 13876.6 547.420  31
   1  -5   0 13358.2 522.026  29
  -1   5   0 13145.5 530.059   4
  -1   5  -1 46718.7 1069.09  31
  -1   5  -1 41639.9 1009.95   2
  -1   5  -1 46999.1 862.366  28
   1  -5   1 43684.3 875.046  33
   1  -5   1 43709.9 799.530   3
   1  -5   1 45573.8 1063.86  29
  -1   5  -1 44415.9 994.002   4
   1  -5   1 43834.7 1094.02   1
  -1   5  -2 12672.0 525.551  31
  -1   5  -2 12333.0 427.143  28
   1  -5   2 11034.8 517.163   1
   1  -5   2 11962.2 404.174  33
  -1   5  -2 11179.0 437.661   4
   1  -5   2 11968.9 512.854  29
  -1   5  -2 11354.7 466.119   2
  -1   5  -3 189.197 77.1768  31
   1  -5   3 129.954 47.1157  33
  -1   5  -3 255.163 68.3455   6
  -1   5  -3 128.315 55.0722   2
  -1   5  -3 199.143 54.9492  28
   1  -5   3 124.856 60.7052   1
  -1   5  -4 3472.11 295.182  31
   1  -5   4 3142.72 281.004   1
  -1   5  -4 3044.05 229.292  28
  -1   5  -4 2757.28 208.684   2
  -1   5  -4 2732.81 227.590   6
   1  -5   4 2818.94 208.396  33
   1  -5   5 843.884 150.568  10
  -1   5  -5 795.369 122.885   6
   1  -5   5 761.551 145.166   1
  -1   5  -5 1075.72 171.853  31
  -1   5  -5 750.495 118.281  28
   1  -5   5 988.928 173.933   5
  -1   5  -6 8642.59 429.950  28
  -1   5  -6 9647.73 508.698  31
  -1   5  -6 8400.55 408.555   6
   1  -5   6 8871.02 534.026   5
   1  -5   6 8649.55 525.035   1
   1  -5   6 8850.20 500.939  10
  -1   5  -6 8752.89 415.229  32
  -1   5  -7 75.8153 51.2881  28
   1  -5   7 320.442 105.411   5
  -1   5  -7 106.321 44.9711  32
   1  -5   7 116.825 80.9744   1
  -1   5  -7 69.4587 37.7933   6
  -1   5  -7 95.2383 59.7292  31
   1  -5   7 81.8888 56.5483  10
  -1   5  -8 10064.4 496.514  32
  -1   5  -8 10370.1 512.197  28
   1  -5   8 10609.1 630.745   1
   1  -5   8 10531.4 597.005  10
   1  -5   8 10143.7 644.605   5
   1  -5   9 2019.13 304.831   5
  -1   5  -9 2545.98 261.188  32
   1  -5   9 2106.04 291.228   1
   1  -5   9 2220.88 276.697  10
  -1   5  -9 1965.72 228.212  28
   1  -5  10 3994.13 449.010   5
  -1   5 -10 3712.96 326.678  32
  -1   5 -10 4050.46 335.011  28
   1  -5  11 92.6031 28.1986  47
   1  -5  11 69.5452 31.2151  14
   1  -5  11 43.3132 18.7686  19
   1  -5  11 71.0424 22.8636  23
   1  -5  11 37.4422 18.9112  26
   1  -5  12 6684.11 197.327  19
   1  -5  12 6821.40 206.122  26
   1  -5  12 6622.80 201.235  23
   1  -5  13 571.026 56.3814  19
   1  -5  13 549.644 56.4405  23
   1  -5  13 574.325 58.1205  26
   1  -5  14 72.7572 25.6251  23
   1  -5  14 11.6489 14.7545  19
   1  -5  14 29.7027 19.5256  26
   1  -5  15 1698.76 88.0326  23
   1  -5  15 1565.46 80.2642  26
   1  -5  15 1687.43 80.4978  19
   1  -5  16 374.157 31.8775  19
   1  -5  16 353.248 32.2414  26
   1  -5  16 292.120 31.7308  23
   1  -5  17-7.86080 9.09271  23
  -1   4  13 30.4759 12.9256  24
  -1   4  12 2118.41 106.358  49
  -1   4  12 2241.44 94.9930  24
  -1   4  11 19272.8 321.669  26
  -1   4  11 18975.1 388.382  49
  -1   4  11 18380.4 345.233  24
  -1   4  10 280.617 41.2948  24
  -1   4  10 277.548 35.4767  23
  -1   4  10 264.783 49.2158  49
  -1   4  10 295.096 36.5594  26
  -1   4   9 636.985 58.6932  24
  -1   4   9 672.594 70.8448  49
  -1   4   9 641.548 49.2233  23
  -1   4   9 602.661 51.5121  26
  -1   4   9 530.463 58.0154  16
  -1   4   8 49.8190 19.8977  44
  -1   4   8 74.9556 21.1653  26
  -1   4   8 24.2182 20.3082  49
  -1   4   8 50.0702 23.7844  16
  -1   4   8 8.11013 16.0219  24
   1  -4  -7 1400.86 199.970  29
  -1   4   7 1200.06 243.629   9
   1  -4  -7 1295.33 206.232  33
  -1   4   7 1307.31 223.390   4
  -1   4   7 1492.37 247.545   7
   1  -4  -6 2408.76 244.608  29
  -1   4   6 2560.22 329.872   9
   1  -4  -6 2568.10 257.826  30
  -1   4   6 2477.32 295.160  35
  -1   4   6 2660.86 305.329   7
  -1   4   5 68932.4 1613.12  35
   1  -4  -5 68845.9 1430.03  30
  -1   4   5 68850.9 1709.09   9
   1  -4  -5 72852.7 1430.49  29
  -1   4   5 71945.5 1604.59   7
  -1   4   5 73162.5 1677.37   4
  -1   4   4 925.577 152.259   7
  -1   4   4 775.050 143.606   4
  -1   4   4 745.877 147.047   9
   1  -4  -4 739.960 120.023  29
   1  -4  -4 905.587 133.078  30
  -1   4   4 1260.52 169.222   8
   1  -4  -3 104704. 1656.78   3
   1  -4  -3 105023. 1751.27  30
  -1   4   3 106953. 1846.37  31
  -1   4   3 104971. 1801.38   8
   1  -4  -3 106705. 1705.23  29
  -1   4   3 106903. 1805.68   7
   1  -4  -3 112420. 1793.64  33
  -1   4   3 113864. 1954.72   4
   1  -4  -2 145188. 2041.28  29
  -1   4   2 135036. 2059.37   8
  -1   4   2 136492. 2125.58  31
  -1   4   2 141779. 2209.27   4
   1  -4  -2 133124. 2053.26  30
   1  -4  -2 146148. 1944.55   3
   1  -4  -2 143735. 2050.77  33
   1  -4  -1 51708.9 991.718  29
  -1   4   1 50050.5 1068.81   4
   1  -4  -1 53945.8 977.145  33
  -1   4   1 48520.7 1021.01  31
   1  -4  -1 47657.4 993.815  30
  -1   4   1 45969.9 1068.65   2
   1  -4  -1 53177.4 876.240   3
  -1   4   0 31720.4 579.974  28
   1  -4   0 32075.6 753.483  29
   1  -4   0 32705.5 828.238   1
  -1   4   0 30921.6 762.288  31
  -1   4   0 30717.5 756.782   4
  -1   4   0 29193.8 758.886   2
   1  -4   0 29233.1 579.885   3
   1  -4   0 31934.7 669.974  33
   1  -4   1 42252.9 777.569  33
   1  -4   1 39423.9 883.458  29
  -1   4  -1 43714.6 923.126  31
   1  -4   1 39760.2 717.843   3
   1  -4   1 43426.1 967.313   1
  -1   4  -1 42860.4 762.507  28
  -1   4  -1 39463.0 845.261   4
  -1   4  -1 39327.3 874.367   2
   1  -4   2 131343. 2049.66  29
   1  -4   2 130980. 1854.28  33
  -1   4  -2 137635. 1902.05  28
  -1   4  -2 136467. 1970.36   2
   1  -4   2 152453. 1965.95   3
   1  -4   2 143520. 2155.76   1
  -1   4  -3 10823.9 406.070   6
   1  -4   3 11900.7 447.606   3
   1  -4   3 10798.5 375.801  33
  -1   4  -3 11086.2 387.515   2
   1  -4   3 10607.4 464.850   1
  -1   4  -3 11259.1 398.915  28
  -1   4  -3 12901.7 505.433  31
   1  -4   3 13346.7 448.490   7
   1  -4   4 76425.5 1475.26   1
  -1   4  -4 77624.3 1325.04   6
  -1   4  -4 74607.5 1305.84  28
   1  -4   4 76122.1 1262.00   7
  -1   4  -4 76685.9 1211.89   2
  -1   4  -5 31472.8 876.557  31
   1  -4   5 29471.6 897.499   5
  -1   4  -5 28850.9 741.317  28
   1  -4   5 25910.9 679.557   7
   1  -4   5 26616.4 797.524  10
   1  -4   5 25824.8 815.790   1
  -1   4  -5 29429.3 718.010  32
  -1   4  -5 27316.8 702.964   6
   1  -4   6 40102.1 951.864   7
   1  -4   6 41728.4 1147.53   5
  -1   4  -6 41809.4 934.718  32
   1  -4   6 39499.9 1032.46  10
  -1   4  -6 42523.9 927.735   6
  -1   4  -6 39689.4 937.805  28
   1  -4   6 39381.8 1085.32   1
   1  -4   7 11392.8 553.873  10
  -1   4  -7 10653.4 462.361  32
   1  -4   7 10425.2 494.910   7
  -1   4  -7 10613.7 438.706   6
  -1   4  -7 10707.2 469.864  28
   1  -4   7 10344.4 558.408   1
   1  -4   8 79445.2 1689.14   7
  -1   4  -8 82831.0 1563.12  32
   1  -4   8 81794.5 1920.59   5
   1  -4   8 77295.1 1697.23  10
  -1   4  -8 80750.3 1542.63  28
   1  -4   8 80416.2 1820.62   1
  -1   4  -9 41625.4 1078.04  32
  -1   4  -9 43622.9 1084.99  28
   1  -4   9 41197.1 1305.59   1
   1  -4   9 38310.4 1332.79   5
   1  -4   9 40533.3 1224.25   7
   1  -4  10 46.4894 59.0239   5
  -1   4 -10 93.9740 60.9836  32
  -1   4 -10 113.009 52.5556  28
   1  -4  11 7460.77 211.337  26
   1  -4  11 7054.47 202.770  23
   1  -4  11 7635.95 204.436  19
   1  -4  12 26414.5 463.744  26
   1  -4  12 26733.4 449.173  19
   1  -4  12 26614.1 461.349  23
   1  -4  13 425.535 46.7917  19
   1  -4  13 389.733 46.4055  23
   1  -4  13 377.132 46.6349  26
   1  -4  14 1436.89 80.3362  19
   1  -4  14 1291.74 79.5302  26
   1  -4  14 1334.58 81.7238  23
   1  -4  15 208.867 31.6551  23
   1  -4  15 239.416 30.5766  19
   1  -4  15 240.804 32.4522  26
   1  -4  16 557.783 39.7925  26
   1  -4  16 562.542 43.6341  23
   1  -4  17 1.13944 9.35219  23
  -1   3  14 587.711 40.3004  24
  -1   3  13 135.299 27.7778  24
  -1   3  13 167.623 22.8720  26
  -1   3  12 9462.85 253.691  49
  -1   3  12 9752.10 205.805  26
  -1   3  12 9376.85 229.780  24
  -1   3  11 4340.54 175.958  49
  -1   3  11 4611.23 142.307  26
  -1   3  11 4394.92 159.008  24
  -1   3  11 4137.51 164.587  27
  -1   3  10 2349.03 101.082  26
  -1   3  10 2376.12 100.119  23
  -1   3  10 2294.54 128.933  49
  -1   3  10 2275.41 113.685  24
  -1   3   9 38.3737 14.1005  23
  -1   3   9 33.3047 15.5602  26
  -1   3   9 38.2748 19.2947  24
  -1   3   9 63.4135 21.0727  16
  -1   3   9 42.1550 21.6882  49
  -1   3   8 2091.12 334.225   9
   1  -3  -8 2069.96 238.348  29
  -1   3   8 2382.39 323.437   7
   1  -3  -7 19135.5 686.640  30
  -1   3   7 19007.2 933.918   9
   1  -3  -7 19940.4 715.801  29
  -1   3   7 18959.7 808.213   4
  -1   3   7 19510.2 872.017   7
  -1   3   6 17419.1 732.281  35
  -1   3   6 18144.7 771.807   7
   1  -3  -6 19379.4 640.704  30
  -1   3   6 17020.1 735.819   8
  -1   3   6 17170.4 807.971   9
  -1   3   6 19111.7 760.072   4
   1  -3  -6 17866.3 622.845  29
  -1   3   5 15713.0 646.632   4
  -1   3   5 16176.2 696.865   9
  -1   3   5 16847.7 675.245   7
   1  -3  -5 16184.0 546.290  30
  -1   3   5 15042.2 634.775   8
  -1   3   5 16823.9 672.097  35
   1  -3  -5 16904.6 557.265  29
  -1   3   4 41286.0 1007.74   7
   1  -3  -4 40831.0 856.993  29
  -1   3   4 37886.4 1006.24   9
  -1   3   4 41552.0 1024.16   4
   1  -3  -4 40093.8 858.143  30
  -1   3   3 26724.2 749.664   4
  -1   3   3 29151.1 749.772  31
   1  -3  -3 27722.3 644.957  29
  -1   3   3 29353.0 753.928   7
  -1   3   3 27940.9 746.795   8
   1  -3  -3 28937.5 669.450  30
  -1   3   2 25931.8 647.791   8
   1  -3  -2 25864.4 601.162  30
   1  -3  -2 26774.6 591.560  29
  -1   3   2 26336.6 638.891   7
  -1   3   2 25623.7 648.220  31
  -1   3   2 24889.3 674.739   4
  -1   3   1 7394.37 335.272   2
   1  -3  -1 8691.91 276.545   3
   1  -3  -1 8085.92 296.380  33
  -1   3   1 8262.81 339.886   4
   1  -3  -1 8335.63 298.982  29
  -1   3   1 7914.46 193.421  28
  -1   3   1 7740.07 316.504  31
   1  -3  -1 7663.67 298.435  30
   1  -3   0 29245.8 530.873   3
   1  -3   0 28307.1 676.637   1
   1  -3   0 29710.9 585.449  33
  -1   3   0 27734.6 643.102   2
  -1   3   0 30412.5 516.363  28
  -1   3  -1 2553.30 163.031   4
  -1   3  -1 2597.51 162.331   2
   1  -3   1 2477.21 144.637  33
   1  -3   1 2585.39 139.531   3
  -1   3  -1 2670.20 146.656  28
  -1   3  -2 786.827 86.2759  28
  -1   3  -2 887.127 109.363  31
   1  -3   2 660.018 80.5350  33
   1  -3   2 955.210 109.168   3
   1  -3   3 17956.2 563.863   3
  -1   3  -3 17873.5 404.582   2
   1  -3   3 16639.4 478.839  33
  -1   3  -3 18116.3 476.012  28
  -1   3  -3 18413.5 483.202   6
   1  -3   3 16416.5 533.154   1
   1  -3   4 82599.9 1481.08   5
   1  -3   4 76517.9 1333.39  10
   1  -3   4 77424.9 1327.42   7
  -1   3  -4 76899.2 1243.51  28
   1  -3   4 69065.8 1338.53   1
  -1   3  -4 79922.5 1242.73   6
  -1   3  -4 85146.0 1407.25  31
  -1   3  -4 72936.2 1014.25   2
  -1   3  -4 79316.9 1222.16  32
  -1   3  -5 97369.1 1500.10  32
   1  -3   5 93073.7 1592.60   9
   1  -3   5 96272.7 1600.57  10
   1  -3   5 97619.3 1625.74   7
   1  -3   5 95809.7 1759.36   5
   1  -3   5 90984.3 1656.97   1
  -1   3  -5 97372.7 1487.60   6
  -1   3  -5 99131.7 1527.12  28
  -1   3  -5 103219. 1655.47  31
  -1   3  -6 28034.9 705.925  32
   1  -3   6 26875.0 864.761   5
  -1   3  -6 27547.7 704.728  28
   1  -3   6 25666.8 781.848   9
   1  -3   6 26380.1 762.815  10
   1  -3   6 27545.2 808.130   7
   1  -3   6 27923.1 843.398   1
  -1   3  -6 28992.5 707.486  31
  -1   3  -6 27960.0 682.968   6
   1  -3   7 188197. 3062.53   5
   1  -3   7 195328. 2831.79  10
   1  -3   7 190296. 2954.59   9
   1  -3   7 190529. 2935.09   7
  -1   3  -7 185738. 2636.75  28
  -1   3  -7 195975. 2592.61   6
   1  -3   7 193833. 2996.00   1
  -1   3  -7 193619. 2677.60  32
  -1   3  -8 155473. 2337.16  28
   1  -3   8 156670. 2772.80   9
  -1   3  -8 158867. 2390.20  32
   1  -3   8 163394. 2533.70  10
   1  -3   8 159857. 2749.94   7
   1  -3   8 154887. 2818.57   5
   1  -3   8 159939. 2740.02   1
   1  -3   9 138.962 85.3597   7
  -1   3  -9 249.730 80.7556  32
   1  -3   9 177.379 93.1255   5
  -1   3  -9 275.028 78.9882  28
   1  -3   9 318.802 113.824   9
  -1   3  -9 392.849 105.289  30
   1  -3  10 73.2151 50.3798   5
  -1   3 -10 239.304 84.9907  32
   1  -3  10 2.60425 95.5055   7
  -1   3 -10 70.8115 55.4984  30
   1  -3  10 29.7556 76.2490   9
   1  -3  11 1378.90 80.8520  19
   1  -3  11 1444.96 88.5104  26
   1  -3  11 1493.69 88.0450  23
   1  -3  12 6259.62 181.215  19
   1  -3  12 6265.76 191.393  23
   1  -3  12 6312.25 193.818  26
   1  -3  13 5.39352 21.8867  24
   1  -3  13 50.3004 22.1516  26
   1  -3  13 46.0176 15.6741  19
   1  -3  14 4786.49 161.625  24
   1  -3  14 4974.13 149.730  19
   1  -3  14 4516.98 151.044  26
   1  -3  14 4453.72 151.606  23
   1  -3  15 408.923 38.6824  19
   1  -3  15 332.468 38.6498  23
   1  -3  15 309.080 37.1720  24
   1  -3  15 321.793 37.3930  26
   1  -3  16 755.896 45.6765  24
   1  -3  16 768.230 44.5085  26
   1  -3  16 839.670 49.4854  23
  -1   2  15 1061.24 50.1058  24
  -1   2  14 894.716 57.5689  24
  -1   2  13 1321.10 83.6514  49
  -1   2  13 1424.20 71.6217  23
  -1   2  13 1401.41 82.2265  24
  -1   2  13 1393.03 66.8035  26
  -1   2  12 203.878 41.9009  24
  -1   2  12 195.556 31.1367  23
  -1   2  12 228.915 32.1005  26
  -1   2  12 189.850 38.3485  49
  -1   2  11 14515.8 338.743  49
  -1   2  11 13763.7 312.192  24
  -1   2  11 14722.1 289.591  23
  -1   2  11 14770.9 284.226  26
  -1   2  10 512.213 46.5731  23
  -1   2  10 507.463 47.0595  26
  -1   2  10 457.592 55.2783  49
  -1   2  10 485.072 52.6337  24
  -1   2   9 36.9603 16.6422  19
  -1   2   9 37.8471 21.7273  49
  -1   2   9 1.15708 13.9739  23
  -1   2   9 14.0783 17.3453  24
  -1   2   9 1.07105 32.2530   9
  -1   2   8 13920.7 812.518   9
  -1   2   8 14112.8 761.872   7
   1  -2  -8 13775.0 587.056  29
  -1   2   7 7370.92 537.099   9
  -1   2   7 7036.49 449.729  35
  -1   2   7 8179.80 468.179   4
   1  -2  -7 7915.09 384.429  30
  -1   2   7 7926.47 522.185   7
  -1   2   7 7039.04 493.115   8
   1  -2  -7 8385.33 416.908  29
   1  -2  -6 5250.40 284.561  30
   1  -2  -6 5396.78 303.955  29
  -1   2   6 4793.81 370.460   7
  -1   2   6 4621.22 361.325   8
  -1   2   6 5288.76 351.632   4
  -1   2   6 4677.77 340.974  35
  -1   2   6 4704.13 384.481   9
   1  -2  -5 191.265 50.1410  30
  -1   2   5 158.259 64.6053  35
  -1   2   5 127.689 54.6691   7
   1  -2  -5 227.011 59.0800  29
  -1   2   5 101.523 49.6246   8
  -1   2   5 286.620 85.9119   9
   1  -2  -4 21218.5 529.328  29
  -1   2   4 20072.0 644.659   9
  -1   2   4 20410.2 631.201  35
   1  -2  -4 20898.5 499.979  30
  -1   2   4 20092.4 636.705   7
  -1   2   4 19408.0 598.903   4
   1  -2  -3 168886. 2097.29  29
  -1   2   3 167074. 2317.27   8
  -1   2   3 164945. 2285.30   7
  -1   2   3 166937. 2263.17   4
   1  -2  -3 171304. 2078.02  30
  -1   2   2 290509. 3456.29   4
  -1   2   2 278170. 3408.27  31
  -1   2   2 289494. 3442.78   8
   1  -2  -2 292122. 3279.59  30
  -1   2   2 289073. 3443.76   7
   1  -2  -1 15056.8 352.458   3
   1  -2  -1 14473.0 352.207  30
  -1   2   1 15106.6 259.844  28
   1  -2   0 519772. 5658.35   3
  -1   2   0 527891. 5615.04  28
  -1   2  -1 30297.2 517.028   2
   1  -2   1 28635.3 550.908  33
   1  -2   1 30007.4 548.176   3
  -1   2  -1 32717.4 499.925  32
  -1   2  -1 33000.7 537.088  28
  -1   2  -2 92.2200 26.8908  32
  -1   2  -2 129.309 34.6272  31
   1  -2   2 108.415 36.2483  33
   1  -2   2 122.645 50.6576   3
  -1   2  -2 141.644 23.8220   2
   1  -2   2 101.955 26.5297   9
   1  -2   3 297177. 3631.65   9
  -1   2  -3 303359. 3618.62   6
   1  -2   3 300067. 3689.72  10
   1  -2   3 339626. 3914.88   7
  -1   2  -4 310806. 3606.42   6
   1  -2   4 297787. 3643.54  10
  -1   2  -4 319321. 3629.40  28
  -1   2  -4 308907. 3601.46  32
   1  -2   4 294459. 3717.89   9
   1  -2   4 296545. 3814.99   7
   1  -2   4 283290. 3763.19   1
   1  -2   4 310693. 3861.91   5
  -1   2  -5 1446.95 109.043  31
   1  -2   5 1512.93 170.704   7
  -1   2  -5 1570.05 137.103  32
  -1   2  -5 1446.07 127.779   6
   1  -2   5 1393.70 160.942   9
  -1   2  -5 1434.39 129.855  28
   1  -2   5 1236.27 151.152   1
   1  -2   5 1314.20 163.720   5
   1  -2   5 1455.13 140.250  10
   1  -2   6 500.578 87.3579  10
  -1   2  -6 441.235 78.1991   6
   1  -2   6 392.533 95.0075   7
  -1   2  -6 484.593 82.1654  28
   1  -2   6 342.213 92.9909   9
   1  -2   6 431.237 93.5789   1
   1  -2   6 572.182 120.661   5
   1  -2   7 7079.98 465.298   9
  -1   2  -7 6928.87 337.809  32
   1  -2   7 7151.13 432.675   1
  -1   2  -7 7557.18 335.422  28
  -1   2  -7 7362.22 328.397   6
   1  -2   7 7759.38 471.519   7
   1  -2   7 6868.06 348.915   4
   1  -2   7 7576.76 470.863   5
  -1   2  -8 85.0474 41.0590  28
  -1   2  -8 173.079 69.2181  30
   1  -2   8 69.3116 55.4914   5
   1  -2   8 137.112 79.2128   7
   1  -2   8 74.6006 65.6083   9
   1  -2   9 1521.32 241.350   5
   1  -2   9 1547.55 254.774   7
  -1   2  -9 1614.68 179.627  32
   1  -2   9 1631.01 265.348   9
  -1   2  -9 1537.22 191.285  30
   1  -2  10 1845.34 298.988   7
  -1   2 -10 2117.44 216.816  32
  -1   2 -10 1977.86 228.503  30
   1  -2  10 1711.87 272.161   5
   1  -2  10 2149.59 329.404   9
   1  -2  11 3608.76 130.788  19
   1  -2  11 3643.07 138.903  26
   1  -2  11 3425.41 132.583  23
   1  -2  12 136.131 27.0200  19
   1  -2  12 124.810 26.7679  26
   1  -2  12 94.3394 24.2069  23
   1  -2  13 539.766 53.2490  23
   1  -2  13 575.421 56.6710  26
   1  -2  13 715.731 57.1350  19
   1  -2  13 681.336 64.7938  24
   1  -2  14 33.7971 19.9122  19
   1  -2  14-8.20323 16.4209  23
   1  -2  14-2.76119 17.0845  24
   1  -2  14 12.9576 16.4945  26
   1  -2  15 2084.05 87.2965  26
   1  -2  15 2103.63 94.9903  24
   1  -2  15 2254.88 91.4600  23
   1  -2  16 181.309 23.5447  24
   1  -2  16 259.704 25.1117  26
   1  -2  16 211.629 23.5068  23
  -1   1  15 420.061 37.1473  24
  -1   1  15 526.899 35.9989  23
  -1   1  14 428.921 39.3837  23
  -1   1  14 386.580 44.5708  24
  -1   1  13 195.065 37.8340  24
  -1   1  13 224.298 34.7212  23
  -1   1  12 5141.56 150.473  26
  -1   1  12 4765.32 173.931  24
  -1   1  12 5154.54 160.444  23
  -1   1  12 5215.88 180.666  49
  -1   1  11 2647.47 126.837  24
  -1   1  11 3084.61 124.378  19
  -1   1  11 2923.12 118.741  23
  -1   1  11 2821.08 133.215  49
  -1   1  11 2788.69 110.937  26
  -1   1  10 882.014 69.5062  24
  -1   1  10 882.144 59.9860  26
  -1   1  10 873.644 72.1143  49
  -1   1  10 930.270 64.1422  23
  -1   1  10 1023.04 68.1405  19
   1  -1  -9 54.0428 41.1268  29
  -1   1   9 16.2264 45.7972   7
  -1   1   9 19.9518 49.0917   9
  -1   1   8 29007.7 1133.83   9
   1  -1  -8 30137.7 842.637  29
   1  -1  -8 30161.0 779.755  30
  -1   1   8 29652.1 1091.03   7
   1  -1  -7 7677.77 371.754  29
  -1   1   7 7301.55 476.131   7
  -1   1   7 7038.37 490.800   9
   1  -1  -7 7409.64 333.941  30
  -1   1   7 6955.15 420.692  35
  -1   1   7 7286.22 481.072   8
   1  -1  -6 30753.8 670.195  30
  -1   1   6 30384.3 787.740   4
  -1   1   6 30260.8 956.407   9
  -1   1   6 27341.0 815.029  35
   1  -1  -6 29371.7 717.885  29
  -1   1   6 30239.8 913.128   7
  -1   1   6 28359.4 918.481   8
  -1   1   5 1506.68 176.755   7
   1  -1  -5 1498.83 118.250  30
  -1   1   5 1735.39 192.748   9
  -1   1   5 1326.14 155.861  35
  -1   1   5 1248.63 162.718   8
  -1   1   5 1470.40 148.613   4
   1  -1  -5 1504.75 133.176  29
   1  -1  -5 1376.54 81.9772  32
   1  -1  -4 217429. 2531.43  30
   1  -1  -4 211035. 2351.03  28
  -1   1   4 214674. 2715.75   4
  -1   1   4 219354. 2904.75   9
  -1   1   4 206910. 2846.37   7
  -1   1   4 215460. 2890.51   8
   1  -1  -4 226926. 2624.99  29
  -1   1   4 222783. 2844.82  35
   1  -1  -4 216746. 2363.77  32
  -1   1   3 216472. 2756.22   8
  -1   1   3 201863. 2682.98   9
   1  -1  -3 211508. 2430.29  30
   1  -1  -3 212145. 2292.33  32
  -1   1   3 229206. 2748.99  35
   1  -1  -3 219062. 2514.77  29
  -1   1   3 215748. 2613.96   4
  -1   1   2 808444. 8771.05   4
  -1   1   2 840736. 8791.97   9
  -1   1   1 67339.7 841.197   6
   1  -1  -1 61335.9 798.119  30
  -1   1   1 67279.7 830.873   9
  -1   1   1 62485.7 780.077  28
   1  -1   0 93708.2 1189.80   1
  -1   1   0 95796.7 1066.30  32
   1  -1   1 351.716 33.4309   9
  -1   1  -1 265.440 32.5886  31
   1  -1   3 211004. 2607.49   9
  -1   1  -3 203145. 2224.88  31
  -1   1  -3 211712. 2432.07  28
  -1   1  -3 207516. 2468.46   6
   1  -1   4 181328. 2492.21   5
   1  -1   4 188817. 2531.43   9
   1  -1   4 192402. 2248.56  10
  -1   1  -4 179251. 2258.61  32
  -1   1  -4 198574. 2319.75   6
  -1   1  -4 182399. 2235.07  28
   1  -1   4 178062. 2374.02   4
   1  -1   4 181217. 2463.17   1
   1  -1   4 172079. 2494.68   7
  -1   1  -5 595.947 75.0751  28
   1  -1   5 530.918 103.353   5
  -1   1  -5 480.050 72.6067  32
  -1   1  -5 604.456 82.9662   6
   1  -1   5 506.890 96.8003   1
   1  -1   5 663.892 115.944   7
   1  -1   5 607.825 93.6457   4
   1  -1   5 559.213 113.154   9
   1  -1   6 5619.12 364.875   5
   1  -1   6 6122.07 402.184   9
  -1   1  -6 7160.13 302.850  32
  -1   1  -6 5502.81 270.971   6
   1  -1   6 5376.52 365.918   7
  -1   1  -6 5683.66 249.498  28
  -1   1  -6 6691.18 322.043  30
   1  -1   6 5415.97 307.243   4
  -1   1  -7 4799.19 237.888  28
  -1   1  -7 4294.84 249.983   6
   1  -1   7 4503.28 352.750   5
   1  -1   7 5334.26 419.904   9
  -1   1  -7 5597.75 317.424  30
   1  -1   7 4311.35 360.980   7
  -1   1  -7 4787.24 267.101  32
   1  -1   7 4713.88 307.645   4
   1  -1   8 223.174 101.681   9
  -1   1  -8 270.809 71.6036  32
   1  -1   8 272.646 104.342   5
   1  -1   8 176.613 80.6033   7
  -1   1  -8 235.029 73.5412  30
   1  -1   9 153.127 87.3413   7
   1  -1   9 165.479 83.4240   5
  -1   1  -9 175.085 61.4752  30
  -1   1  -9 138.051 48.8686  32
   1  -1   9 257.781 118.059   9
  -1   1 -10 20969.5 782.644  29
   1  -1  10 21108.5 1091.75   9
   1  -1  10 19335.7 1009.60   7
  -1   1 -10 21057.1 770.224  30
   1  -1  10 20457.7 961.580   5
   1  -1  11 660.988 57.8560  26
   1  -1  11 732.651 55.8502  19
   1  -1  11 608.311 55.1877  23
   1  -1  12 16.3783 15.7499  23
   1  -1  12 27.8479 20.6304  24
   1  -1  12 54.7560 25.1339  26
   1  -1  12 57.3895 20.5014  19
   1  -1  13 207.982 36.3863  26
   1  -1  13 150.785 32.0430  24
   1  -1  13 184.302 31.4284  19
   1  -1  13 110.973 26.0989  23
   1  -1  14 1742.79 85.0106  23
   1  -1  14 1650.21 84.1680  26
   1  -1  14 1614.43 93.3999  24
   1  -1  15 968.168 63.0111  24
   1  -1  15 1000.74 56.0914  23
   1  -1  15 931.510 54.7737  26
   1  -1  16 819.129 45.9131  24
   1  -1  16 934.332 42.0806  26
  -1   0  16 104.568 17.9167  24
  -1   0  16 143.388 18.6209  23
  -1   0  15 571.567 42.3601  23
  -1   0  15 538.133 47.3160  24
  -1   0  14 251.200 40.2809  24
  -1   0  14 221.797 31.8466  23
  -1   0  13 6577.40 204.554  24
  -1   0  13 6557.28 185.148  23
  -1   0  12 2268.64 116.547  24
  -1   0  12 2576.88 116.786  19
  -1   0  12 2211.27 105.682  23
  -1   0  11 2148.93 101.947  23
  -1   0  11 2229.69 113.095  24
  -1   0  11 2280.50 106.582  19
  -1   0  10 164.002 85.2404   7
  -1   0  10 266.285 130.993   9
  -1   0  10 239.160 34.6862  19
   1   0 -10 193.482 76.0924  29
  -1   0  10 243.618 33.4883  23
  -1   0  10 261.059 39.2658  24
  -1   0   9 44181.4 1407.21   7
   1   0  -9 44765.6 1080.48  29
  -1   0   9 41733.5 1445.31   9
  -1   0   8 2005.58 229.376  35
  -1   0   8 2048.34 275.460   9
   1   0  -8 2201.13 181.262  30
  -1   0   8 2259.19 282.092   7
  -1   0   8 2304.45 273.073   5
   1   0  -8 2491.43 218.525  29
  -1   0   7 12983.2 594.567   5
  -1   0   7 12999.2 641.384   9
   1   0  -7 12404.0 410.676  30
  -1   0   7 13550.8 626.232   7
  -1   0   7 11338.7 514.927  35
   1   0  -7 12834.1 469.626  29
  -1   0   6 5869.80 334.871  35
   1   0  -6 6013.75 251.551  30
   1   0  -6 5811.86 226.266  32
   1   0  -6 5897.49 285.666  29
  -1   0   6 5441.07 352.289   7
  -1   0   6 5778.50 273.365   4
  -1   0   6 5881.14 357.101   5
  -1   0   6 5362.82 364.315   8
  -1   0   6 6001.50 384.160   9
  -1   0   5 192530. 2656.26   7
  -1   0   5 174863. 2638.11   8
  -1   0   5 182127. 2680.05   9
   1   0  -5 195283. 2387.64  29
   1   0  -5 190470. 2268.39  30
   1   0  -5 186727. 2226.00  32
  -1   0   5 185350. 2556.88  35
  -1   0   5 181907. 2337.87   4
  -1   0   5 195188. 2649.26   5
  -1   0   4 522869. 5817.74   4
  -1   0   4 533448. 6161.41   8
  -1   0   4 523443. 6038.34  35
  -1   0   4 553419. 6167.97   9
  -1   0   4 548648. 6102.24   7
   1   0  -4 537883. 5737.72  30
  -1   0   3 613795. 6417.46   4
   1   0  -3 595036. 6418.66  29
  -1   0   3 596436. 6322.73  34
   1   0  -3 607671. 6329.24  30
  -1   0   3 592323. 6636.79   9
  -1   0   2 15311.8 362.927   9
  -1   0   2 14710.1 274.614  34
   1   0  -1 55186.0 646.549  29
  -1   0   1 55917.3 671.781   6
  -1   0   0 558185. 5852.82  35
   1   0   1 4067.19 131.529   2
   1   0   2 99267.7 1373.88   5
  -1   0  -2 100124. 1250.97  28
   1   0   3 94251.2 1408.78   4
   1   0   3 92943.1 1383.25   5
  -1   0  -3 98861.2 1201.65  28
   1   0   3 92935.8 1072.81  35
   1   0   3 88941.9 1170.88   2
  -1   0  -3 94588.9 1237.24  32
  -1   0  -3 100632. 1326.25   6
  -1   0  -4 88126.7 1163.68  28
   1   0   4 87516.2 1099.18  35
  -1   0  -4 90720.9 1301.53  30
  -1   0  -4 90024.3 1313.14   6
   1   0   4 90605.5 1439.12   5
   1   0   4 89415.5 1542.45   9
   1   0   4 93037.7 1445.80   4
  -1   0  -4 86583.3 1228.11  32
   1   0   5 28320.1 770.645   5
   1   0   5 29272.5 758.282   4
  -1   0  -5 28952.3 659.993  30
   1   0   5 30146.3 871.984   9
  -1   0  -5 27955.3 535.565  28
  -1   0  -5 30847.6 673.377   6
   1   0   5 27008.6 805.555   7
  -1   0  -5 29453.4 606.662  32
  -1   0  -6 42.5189 27.1493   6
   1   0   6 48.3187 38.4570   5
  -1   0  -6 9.43938 26.6909  30
  -1   0  -6 50.9236 29.8158  32
   1   0   6 44.6585 46.3710   9
   1   0   6-13.4443 40.2340   7
   1   0   6 46.0995 41.0169   4
  -1   0  -6 48.3109 24.1416  28
   1   0   7 33720.9 958.768   4
   1   0   7 34095.2 1111.89   7
  -1   0  -7 34373.1 762.136  32
   1   0   7 34707.3 1159.73   9
   1   0   7 34133.7 1006.64   5
  -1   0  -7 35176.2 863.768  30
   1   0   8 503.478 144.500   7
   1   0   8 209.540 84.1826   5
  -1   0  -8 587.069 110.645  30
   1   0   8 277.341 122.291   9
  -1   0  -8 588.087 116.525  29
  -1   0  -8 312.479 73.7880  32
  -1   0  -9 4063.74 316.740  30
   1   0   9 3337.30 391.894   7
  -1   0  -9 3950.70 315.363  29
   1   0   9 4100.66 460.062   9
   1   0   9 3758.53 374.574   5
   1   0  10 691.161 57.8480  26
   1   0  10 586.522 51.2104  23
   1   0  10 636.019 51.0714  19
   1   0  10 701.481 67.0365  40
   1   0  11 51.0670 20.6644  19
   1   0  11 35.6380 17.1288  23
   1   0  11 42.5395 22.1976  26
   1   0  12 1464.00 86.2862  26
   1   0  12 1351.50 79.9762  23
   1   0  12 1264.15 88.5923  24
   1   0  13 1907.94 89.7691  23
   1   0  13 1833.99 103.101  24
   1   0  13 1901.32 93.6973  26
   1   0  14 85.8449 22.5473  26
   1   0  14 87.4262 26.9605  24
   1   0  14 62.5864 16.4973  23
   1   0  15 99.9931 16.5691  23
   1   0  15 96.4952 21.4549  24
   1   0  15 123.809 20.7662  26
  -1  -1  16 672.741 41.1635  23
  -1  -1  16 683.637 43.9815  24
  -1  -1  15 161.832 26.6030  23
  -1  -1  15 115.477 23.4453  24
  -1  -1  14 682.981 60.9408  24
  -1  -1  14 636.675 54.4827  23
  -1  -1  13 4671.25 157.638  23
  -1  -1  13 4708.57 168.409  24
  -1  -1  13 5039.70 165.513  19
  -1  -1  12 29.2402 21.1037  24
  -1  -1  12 44.0395 20.3493  23
  -1  -1  12 33.6684 19.8483  19
  -1  -1  11 15478.4 323.309  24
  -1  -1  11 15688.1 314.408  19
  -1  -1  10 220.839 105.483   5
   1   1 -10 355.822 96.9531  29
  -1  -1  10 349.398 116.451   7
   1   1  -9 2381.70 225.927  29
  -1  -1   9 2332.06 294.043   7
  -1  -1   9 2658.42 329.080   9
  -1  -1   9 2609.94 307.175   5
  -1  -1   8 67522.9 1479.93  35
  -1  -1   8 74052.2 1646.17   5
  -1  -1   8 72091.2 1717.40   9
   1   1  -8 67915.5 1205.53  30
   1   1  -8 67638.9 1307.06  29
  -1  -1   8 74421.3 1667.06   7
   1   1  -8 68989.8 1204.56  32
   1   1  -7 153198. 2138.14  30
  -1  -1   7 172475. 2649.03   5
  -1  -1   7 161738. 2609.69   7
  -1  -1   7 167469. 2706.72   9
  -1  -1   7 155616. 2457.68  35
   1   1  -7 163742. 2170.61  32
   1   1  -7 164314. 2173.82  28
   1   1  -6 19613.6 485.280  30
  -1  -1   6 19748.7 693.953   9
  -1  -1   6 19819.2 656.543   7
  -1  -1   6 19149.4 621.794  35
   1   1  -6 19261.5 493.097  32
  -1  -1   6 20261.5 719.201   8
  -1  -1   6 20544.9 679.062   5
  -1  -1   5 47214.4 998.107   5
  -1  -1   5 48342.9 981.669   7
  -1  -1   5 50046.5 1072.78   9
  -1  -1   5 48764.0 691.190   4
  -1  -1   5 47637.6 1048.41   8
  -1  -1   4 316914. 3771.11   7
  -1  -1   4 310844. 3637.76  34
  -1  -1   4 316854. 3398.44   4
  -1  -1   4 329835. 3896.01   9
  -1  -1   4 321570. 3528.33   1
  -1  -1   4 319571. 3811.36   5
  -1  -1   4 321113. 3825.92  35
  -1  -1   3 469407. 5256.69   5
  -1  -1   3 481772. 5228.77   7
  -1  -1   3 484732. 5021.38   1
  -1  -1   2 219110. 2478.75   8
  -1  -1   2 201497. 2422.69  34
   1   1  -2 212079. 2290.06  33
  -1  -1   2 206246. 2276.60   1
  -1  -1   2 216262. 2408.69   5
  -1  -1   1 3203.16 96.0120   5
  -1  -1   1 3550.70 125.222   8
   1   1  -1 3266.18 103.682   3
   1   1  -1 3143.26 98.1783  33
  -1  -1   1 3263.14 139.563  10
  -1  -1   1 3121.51 107.525  30
  -1  -1   0 172.275 16.4676  29
  -1  -1   0 154.858 23.9553  30
   1   1   1 548620. 5682.94   5
  -1  -1  -1 512118. 5719.89  28
   1   1   1 579733. 5885.76  31
   1   1   1 565590. 7621.63   2
   1   1   1 529049. 5950.02   7
  -1  -1  -2 254587. 2917.26  28
  -1  -1  -2 253606. 3100.74   6
   1   1   2 285475. 3427.01   2
   1   1   2 247160. 3183.34   7
   1   1   2 242837. 3000.00   5
  -1  -1  -2 274121. 2985.21  32
   1   1   3 358.933 59.5124   5
   1   1   3 391.286 33.9253  31
  -1  -1  -3 382.686 51.5376  32
  -1  -1  -3 371.242 42.7062  28
   1   1   3 569.777 92.7645   7
   1   1   3 420.312 81.6320   4
   1   1   3 332.496 41.0839  35
  -1  -1  -3 324.481 58.7846   6
   1   1   4 34383.1 599.426  35
   1   1   4 37365.2 790.931   5
  -1  -1  -4 36771.7 584.649  28
  -1  -1  -4 39217.4 678.623  32
   1   1   4 36076.2 895.842   7
   1   1   4 39581.0 896.589   4
  -1  -1  -4 38564.5 742.106  30
  -1  -1  -5 802.359 102.444  29
   1   1   5 759.370 112.989   5
   1   1   5 719.335 124.905   4
  -1  -1  -5 708.825 97.3515  30
   1   1   5 848.084 150.223   9
   1   1   5 555.130 120.265   7
  -1  -1  -6 425.611 86.0930  30
  -1  -1  -6 502.610 90.0481  29
   1   1   6 430.910 103.709   4
   1   1   6 450.934 126.420   9
   1   1   6 462.607 100.933   5
  -1  -1  -6 467.509 73.6819  32
   1   1   6 487.267 124.305   7
   1   1   7 10272.4 525.573   5
  -1  -1  -7 10338.5 454.779  29
   1   1   7 10014.9 641.499   9
   1   1   7 10661.4 555.340   4
   1   1   7 10026.6 597.163   7
  -1  -1  -7 9696.29 445.922  30
  -1  -1  -7 9949.61 377.959  32
   1   1   8 2330.44 274.205   4
  -1  -1  -8 2145.43 224.006  30
   1   1   8 2350.99 337.219   9
  -1  -1  -8 2233.38 227.030  29
   1   1   8 1909.85 283.554   7
   1   1   8 2249.08 264.862   5
   1   1   9 5551.79 451.700   5
   1   1   9 5452.73 512.950   7
  -1  -1  -9 5440.63 377.229  29
  -1  -1  -9 5405.64 386.734  30
   1   1   9 6320.78 601.721   9
   1   1  10 9002.85 250.791  36
   1   1  10 8660.98 217.163  26
   1   1  11 956.977 69.8637  26
   1   1  11 906.041 62.8080  23
   1   1  11 957.875 76.1516  24
   1   1  12 155.210 28.0353  23
   1   1  12 140.605 32.0738  24
   1   1  12 172.540 31.8111  26
   1   1  13 4862.69 164.959  24
   1   1  13 5269.76 154.400  26
   1   1  13 5087.80 138.392  23
   1   1  14 144.250 25.8578  26
   1   1  14 131.665 29.6470  24
   1   1  15 251.328 27.2884  24
   1   1  15 301.911 26.3031  26
  -1  -2  16 158.867 21.8045  24
  -1  -2  16 187.069 25.2873  23
  -1  -2  15 64.5042 20.6725  24
  -1  -2  15 79.3442 25.2395  23
  -1  -2  15 97.7149 30.6655  19
  -1  -2  14 3516.73 131.486  23
  -1  -2  14 3364.00 132.318  24
  -1  -2  13 535.262 56.3162  24
  -1  -2  13 564.571 55.5670  19
  -1  -2  13 567.183 54.2420  23
  -1  -2  12 7641.01 208.202  23
  -1  -2  12 8148.21 221.677  24
  -1  -2  12 8362.26 222.470  19
  -1  -2  11 1472.55 85.8457  19
  -1  -2  11 1606.78 91.6997  24
   1   2 -10 12817.2 578.594  29
  -1  -2  10 13882.6 769.762   5
  -1  -2  10 13406.7 729.214   7
  -1  -2   9 0.90460 55.6460   7
  -1  -2   9 22.8520 39.0192   9
  -1  -2   9 31.0684 46.2882  35
   1   2  -9 45.3467 48.7676  32
   1   2  -9-3.78334 21.6144  30
  -1  -2   9 139.379 58.4795   5
   1   2  -8 39103.9 893.087  32
   1   2  -8 36433.8 876.840  28
   1   2  -8 39153.3 847.358  30
  -1  -2   8 40593.4 1220.95   9
  -1  -2   8 37434.6 1076.50   7
  -1  -2   8 36327.4 1040.65  35
  -1  -2   8 40172.6 1150.06   5
  -1  -2   7 234264. 3359.28   5
  -1  -2   7 240669. 3266.80   7
  -1  -2   7 239154. 3483.92   9
   1   2  -7 230676. 3032.20  28
   1   2  -7 235265. 2998.71  32
  -1  -2   6 19788.6 690.043   9
  -1  -2   6 18826.9 643.599   5
  -1  -2   6 18839.7 636.377  35
  -1  -2   6 18045.9 580.945   7
  -1  -2   6 18672.1 504.420   1
  -1  -2   5 45562.4 890.166   7
  -1  -2   5 46273.4 976.831   5
  -1  -2   5 47140.3 1011.89  35
   1   2  -5 44845.0 601.643   6
  -1  -2   5 45981.6 1004.84  10
  -1  -2   5 44391.3 906.469  34
  -1  -2   5 45494.4 802.434   1
  -1  -2   4 448.505 76.2509   5
  -1  -2   4 432.216 80.5650  35
   1   2  -4 562.551 51.8963   6
  -1  -2   4 493.958 63.4287   1
  -1  -2   4 418.445 74.4420  34
  -1  -2   4 476.483 66.5234   7
  -1  -2   3 20104.7 469.203   5
   1   2  -3 21106.0 309.599  33
   1   2  -3 19349.2 433.056   2
  -1  -2   3 20988.4 402.499   7
  -1  -2   3 19598.3 496.477  34
  -1  -2   3 19109.0 421.592   1
   1   2  -2 30427.5 405.908   3
   1   2  -2 29640.0 447.839   4
  -1  -2   1 5111.52 193.210  30
  -1  -2   1 4836.10 116.146   5
   1   2  -1 5353.78 189.976   4
   1   2  -1 5252.66 146.397   3
  -1  -2   1 4861.90 154.476  29
   1   2   0 195059. 2317.20   7
   1   2   0 202440. 2415.01   4
  -1  -2   0 197820. 2204.36  29
  -1  -2   0 197401. 2373.42  34
  -1  -2  -1 940332. 9916.12  34
   1   2   1 886090. 10764.7  31
   1   2   1 959862. 9977.39   7
   1   2   1 999999. 11784.3   2
  -1  -2  -1 908887. 9861.49  32
   1   2   2 22010.5 579.848   7
   1   2   2 28507.2 800.988   2
   1   2   2 28219.2 608.118  31
  -1  -2  -2 23354.9 463.640  29
  -1  -2  -2 24401.5 520.041  34
  -1  -2  -2 25225.0 534.769  30
  -1  -2  -2 24433.0 495.623  32
   1   2   3 25037.4 551.749   5
  -1  -2  -3 25374.8 524.270  32
  -1  -2  -3 26129.2 586.024  30
  -1  -2  -3 25065.3 526.146  29
   1   2   3 23908.4 674.195   7
   1   2   3 26040.0 715.894   4
  -1  -2  -3 26460.8 553.792  34
   1   2   3 22225.5 459.390  31
   1   2   3 23645.4 669.562   2
   1   2   4 18123.3 644.439   7
  -1  -2  -4 19836.8 502.869  29
   1   2   4 17544.8 579.827   2
   1   2   4 17583.1 457.645  35
   1   2   4 20246.2 676.790   4
  -1  -2  -4 19237.7 468.663  32
   1   2   4 19561.4 545.136   5
  -1  -2  -4 20169.2 491.615  34
  -1  -2  -4 19472.3 538.696  30
   1   2   5 1372.86 188.121   4
  -1  -2  -5 1365.18 146.356  30
  -1  -2  -5 1470.28 142.446  29
   1   2   5 1491.96 206.161   7
  -1  -2  -5 1593.15 134.029  32
   1   2   5 1422.56 157.691   5
  -1  -2  -6 2812.17 231.945  30
   1   2   6 2644.24 318.398   9
   1   2   6 2579.68 287.216   7
  -1  -2  -6 2735.61 217.873  29
  -1  -2  -6 2546.83 183.037  32
   1   2   6 2649.58 278.098   4
   1   2   7 145.652 69.8784   4
  -1  -2  -7 166.645 62.5530  29
   1   2   7 110.904 67.9338   9
   1   2   7 102.479 67.1882   7
  -1  -2  -7 147.468 63.6411  30
  -1  -2  -8 752.512 133.992  29
  -1  -2  -8 779.946 143.169  30
   1   2   8 579.832 170.182   7
   1   2   8 589.876 183.422   9
   1   2   8 702.907 159.341   4
   1   2   9 6261.16 208.925  49
   1   2   9 6179.90 175.439  26
   1   2   9 6616.42 188.380  22
   1   2   9 6359.41 208.709  36
   1   2  10 700.833 68.1556  36
   1   2  10 721.267 59.3863  26
   1   2  10 838.971 74.0819  49
   1   2  10 647.326 62.9337  24
   1   2  10 807.922 64.9137  22
   1   2  11 1943.92 96.7368  26
   1   2  11 1858.77 108.078  49
   1   2  11 1760.02 103.219  24
   1   2  12 2849.79 125.397  24
   1   2  12 3367.87 124.210  26
   1   2  13 27.5713 19.4577  24
   1   2  13 18.7814 18.1409  26
   1   2  14 60.0321 16.9330  26
   1   2  14 44.9460 18.0655  24
  -1  -3  17 95.6326 16.3646  23
  -1  -3  16 112.461 20.3701  23
  -1  -3  16 215.387 31.7257  19
  -1  -3  15 48.2078 25.0833  19
  -1  -3  15 0.88834 16.4853  23
  -1  -3  14 1881.92 97.1512  23
  -1  -3  14 1973.95 101.997  19
  -1  -3  13 9901.73 249.304  19
  -1  -3  13 9090.21 232.910  23
  -1  -3  12 10691.1 252.215  23
  -1  -3  12 10989.2 264.066  19
  -1  -3  11 173.637 31.8059  19
  -1  -3  11 138.183 28.4857  23
   1   3 -10 21866.5 737.643  32
  -1  -3  10 23448.3 1012.62   5
  -1  -3  10 23763.0 926.355   7
  -1  -3   9 106.020 61.9748   7
   1   3  -9 69.4795 47.5709  32
   1   3  -9 6.91780 27.1156  28
   1   3  -9 53.3936 24.6744  30
  -1  -3   8 16960.4 725.119   5
   1   3  -8 16905.9 637.603  31
   1   3  -8 17154.2 621.889  28
  -1  -3   8 17246.4 712.844  35
   1   3  -8 17953.5 611.475  32
  -1  -3   8 18034.5 668.524   7
  -1  -3   7 3206.56 280.579  35
   1   3  -7 3273.91 252.856  31
   1   3  -7 3055.41 201.711   2
  -1  -3   7 3545.50 304.765  10
  -1  -3   7 3810.71 312.024   5
  -1  -3   7 3457.50 257.273   7
  -1  -3   6 8862.49 454.573  10
  -1  -3   6 8200.89 400.688  34
  -1  -3   6 8275.84 419.781   5
  -1  -3   6 9129.72 453.783  35
  -1  -3   6 8610.85 356.250   7
  -1  -3   6 8380.75 354.555   1
   1   3  -6 8575.11 385.096  31
   1   3  -6 7700.78 314.207   2
  -1  -3   5 12233.2 411.385   1
  -1  -3   5 12715.4 507.515  35
  -1  -3   5 12409.5 467.560   5
  -1  -3   5 12391.4 486.035  34
   1   3  -5 12755.2 462.218  31
  -1  -3   5 12641.9 507.780  10
   1   3  -5 11367.4 377.229   2
  -1  -3   5 12719.8 375.227   7
   1   3  -5 12040.4 325.181   6
   1   3  -4 251.611 67.3961  31
   1   3  -4 239.226 20.7954  33
  -1  -3   4 268.682 67.8192  34
   1   3  -4 184.427 49.7351   2
  -1  -3   4 230.660 59.5737   5
  -1  -3   4 374.053 83.4015  10
  -1  -3   4 295.996 59.6469   1
   1   3  -3 10784.0 190.093   3
   1   3  -3 10607.3 239.725   4
  -1  -3   3 11620.0 423.252  10
   1   3  -3 13076.9 468.986  31
  -1  -3   3 11013.3 343.076   5
  -1  -3   3 11379.0 416.699  34
  -1  -3   3 11070.5 367.613   1
   1   3  -3 12625.5 438.104   2
   1   3  -2 145684. 1815.83   4
  -1  -3   2 149826. 2045.58  10
   1   3  -1 41032.7 563.742   7
  -1  -3   1 44389.2 844.782  34
  -1  -3   1 41972.1 797.846  30
   1   3  -1 43485.3 1187.31  31
  -1  -3   1 45426.6 740.861  29
   1   3  -1 41778.7 767.950   4
  -1  -3   1 42488.2 602.899   5
  -1  -3   0 66925.7 1115.63  34
   1   3   0 62896.6 1785.91  31
  -1  -3   0 70589.5 991.063  29
  -1  -3   0 68440.0 1102.35  30
   1   3   0 65763.2 956.963   7
   1   3   0 69432.0 1150.10   4
   1   3   1 189.157 94.5155  31
   1   3   1 118.014 36.4018   7
   1   3   1 99.1951 100.929   2
   1   3   1 209.924 61.6258   4
  -1  -3  -1 112.007 41.9209  34
  -1  -3  -2 523.666 78.8792  34
   1   3   2 558.978 104.672   4
   1   3   2 490.715 112.203   2
   1   3   2 439.516 81.9494   7
  -1  -3  -2 468.499 77.5874  30
  -1  -3  -2 460.775 70.7400  32
  -1  -3  -2 521.192 68.6543  29
   1   3   2 530.696 87.7673  31
  -1  -3  -3 47067.2 866.755  32
   1   3   3 49946.5 1143.96   4
  -1  -3  -3 50132.6 876.509  29
  -1  -3  -3 47224.2 892.966  34
  -1  -3  -3 49696.6 972.938  30
   1   3   3 45646.8 1094.63   2
   1   3   3 46020.7 1047.01   7
   1   3   4 2779.88 259.130   7
   1   3   4 2996.79 282.770   4
  -1  -3  -4 3759.55 218.744  32
  -1  -3  -4 3320.58 239.391  30
   1   3   4 3164.34 270.708   2
  -1  -3  -4 3136.14 205.771  29
   1   3   5 2498.41 270.690   7
  -1  -3  -5 2619.10 208.560  29
   1   3   5 2631.35 282.631   4
  -1  -3  -5 2687.03 233.763  30
   1   3   6 8454.74 614.243   9
  -1  -3  -6 9331.24 476.858  30
   1   3   6 9015.22 567.222   7
  -1  -3  -6 9492.51 434.583  29
   1   3   6 9352.18 577.169   4
  -1  -3  -7 286.235 93.8898  30
  -1  -3  -7 266.356 79.6782  29
   1   3   7 249.140 105.389   9
   1   3   7 367.475 123.369   4
   1   3   7 121.398 61.5758   7
   1   3   8 3999.40 157.935  16
   1   3   8 4208.72 167.344  36
   1   3   8 4062.93 134.472  26
   1   3   8 4094.90 146.857  22
   1   3   8 4224.36 171.215  49
   1   3   8 3693.50 400.129   4
   1   3   9 427.438 44.6101  26
   1   3   9 401.307 48.3918  24
   1   3   9 540.113 53.8767  22
   1   3   9 461.454 58.6085  36
   1   3   9 432.707 52.7551  16
   1   3   9 447.038 57.1686  49
   1   3  10 9.02499 21.8619  24
  -1  -3 -10 25.7485 16.7521  38
   1   3  10 47.5143 25.0309  49
   1   3  10 18.2183 17.1834  26
   1   3  11 3646.46 129.005  26
   1   3  11 3208.29 142.817  49
   1   3  11 3223.58 133.881  24
   1   3  12 551.053 48.2323  26
   1   3  12 428.191 46.7741  49
   1   3  12 506.171 49.1398  24
   1   3  13 182.279 27.6263  26
   1   3  13 149.620 28.4979  24
   1   3  14 549.992 35.3243  24
  -1  -4  17 1245.99 53.6040  23
  -1  -4  16 332.281 36.3448  19
  -1  -4  16 323.394 34.8883  23
  -1  -4  15 91.8937 25.0829  19
  -1  -4  15 72.4656 23.1645  23
  -1  -4  14 3368.42 132.059  23
  -1  -4  14 3409.18 137.505  19
  -1  -4  13 3678.50 141.757  23
  -1  -4  13 3638.88 145.400  19
  -1  -4  12 52.1906 20.7475  19
  -1  -4  12 79.6085 21.9431  23
   1   4 -11 4141.92 332.990  32
  -1  -4  11 4369.93 158.644  14
  -1  -4  11 4013.63 147.971  19
  -1  -4  11 4156.16 143.428  23
  -1  -4  10 77.8186 38.7575   5
   1   4 -10 104.389 62.5979  32
   1   4 -10 94.9293 66.2783  28
  -1  -4   9 15560.3 762.711   5
   1   4  -9 16342.5 637.929  32
   1   4  -9 16309.1 671.454  28
   1   4  -8 2771.85 325.287  31
  -1  -4   8 2835.06 301.745  10
   1   4  -8 2586.48 255.777  28
  -1  -4   8 2488.29 279.714   5
   1   4  -7 21828.1 866.113  31
  -1  -4   7 21579.0 784.805   5
   1   4  -7 22242.7 672.145   2
  -1  -4   7 21848.2 819.308  10
  -1  -4   6 9553.55 430.899   1
   1   4  -6 10564.4 564.977  31
   1   4  -6 10248.6 448.009   2
  -1  -4   6 10005.6 498.829  34
   1   4  -6 9847.73 338.415   6
  -1  -4   6 10162.7 514.621  10
  -1  -4   6 10705.0 492.675   5
  -1  -4   5 247.961 81.2642  10
   1   4  -5 264.492 82.7536   2
  -1  -4   5 325.687 76.8880   5
   1   4  -5 259.545 98.0653  31
  -1  -4   5 217.468 63.4555   1
   1   4  -4 10060.1 581.773  31
  -1  -4   4 7772.32 364.041   1
  -1  -4   4 8075.04 404.751  34
   1   4  -4 9582.69 529.351   2
  -1  -4   4 9547.78 377.326   5
  -1  -4   4 9283.76 444.076  10
  -1  -4   3 600.259 83.2633   5
  -1  -4   3 683.742 107.850   1
  -1  -4   3 580.002 108.800  10
  -1  -4   3 607.343 108.583  34
   1   4  -3 568.635 68.0283   4
   1   4  -3 566.481 172.060   2
  -1  -4   2 12350.1 484.896  10
   1   4  -2 12304.5 778.779  31
  -1  -4   2 10989.1 383.770  29
   1   4  -2 10494.7 999.051   2
  -1  -4   2 11238.8 320.037   5
   1   4  -2 11623.0 370.765   4
  -1  -4   2 11243.5 448.263  34
   1   4  -1 105622. 2661.53  31
  -1  -4   1 111837. 1636.83  29
  -1  -4   1 112107. 1752.00  30
   1   4  -1 117008. 1702.71   4
   1   4  -1 99246.8 3169.56   2
  -1  -4   1 118062. 1793.99  34
  -1  -4   0 8546.46 318.108  29
  -1  -4   0 8624.01 375.753  30
   1   4   0 8375.74 670.264   2
  -1  -4   0 8398.19 367.055  34
   1   4   0 8205.55 376.223   4
   1   4   0 8260.27 601.128  31
   1   4   0 8258.72 260.329   7
  -1  -4  -1 1927.31 178.185  30
  -1  -4  -1 1854.56 147.351  29
   1   4   1 1896.38 194.708   4
   1   4   1 1818.84 147.685   7
   1   4   1 2361.22 282.609   2
  -1  -4  -1 1861.74 169.713  34
   1   4   1 2452.02 255.457  31
  -1  -4  -2 70865.6 1159.44  29
   1   4   2 66159.9 1256.51  31
  -1  -4  -2 65657.2 1212.25  34
   1   4   2 65271.7 1231.81   7
   1   4   2 66924.2 1514.24   2
   1   4   2 71734.4 1452.73   4
  -1  -4  -2 63611.9 1260.03  30
   1   4   3 19821.2 750.908   4
  -1  -4  -3 18949.0 552.239  29
  -1  -4  -3 18974.2 633.606  30
   1   4   3 18360.5 650.269   7
   1   4   3 18400.4 725.896   2
   1   4   4 807.166 164.609   4
   1   4   4 761.316 142.061   7
  -1  -4  -4 898.276 143.945  30
   1   4   4 820.157 156.295   2
  -1  -4  -4 855.754 120.906  29
  -1  -4  -5 6854.84 369.556  29
   1   4   5 7277.63 516.704   4
  -1  -4  -5 7338.65 436.636  30
   1   4   5 6475.44 460.485   7
  -1  -4  -6 5563.21 408.305  30
  -1  -4  -6 5501.55 356.266  29
   1   4   6 4730.95 493.317   9
   1   4   6 5441.02 478.249   4
   1   4   6 5587.37 460.605   7
   1   4   7 6431.28 170.497  26
   1   4   7 6297.47 209.924  36
   1   4   7 6025.46 208.933  49
   1   4   7 6153.06 517.801   7
   1   4   7 5753.24 174.713  24
   1   4   7 6052.40 200.068  16
  -1  -4  -7 5986.36 174.943  46
   1   4   7 6530.76 188.792  22
   1   4   8 38.6843 21.6101  36
   1   4   8 45.0515 26.5761  49
   1   4   8 16.9672 15.9685  26
  -1  -4  -8 24.3519 15.3775  38
   1   4   8 11.1934 22.9841  16
   1   4   8 38.5993 18.2236  24
   1   4   9 844.288 80.4438  49
   1   4   9 836.375 67.9651  24
   1   4   9 888.231 63.6924  26
   1   4   9 807.527 73.8977  16
  -1  -4  -9 933.185 68.6094  38
   1   4  10 1455.09 100.873  49
   1   4  10 1286.55 86.3007  16
   1   4  10 1539.48 82.5812  26
   1   4  10 1394.12 86.1390  24
  -1  -4 -10 1348.39 78.4166  38
   1   4  11 2184.17 101.393  16
   1   4  11 2330.74 115.686  49
   1   4  11 2232.74 100.892  24
   1   4  11 2495.47 100.360  26
   1   4  12 807.124 55.3570  24
   1   4  12 774.405 56.8731  49
  -1  -4 -13 364.627 30.6743  18
   1   4  13 376.895 29.9579  24
  -1  -5  17 323.576 27.8306  23
  -1  -5  17 326.471 30.4309  19
  -1  -5  16 2898.39 104.926  19
  -1  -5  16 2832.99 100.670  23
  -1  -5  15 3169.41 120.567  23
  -1  -5  15 3130.21 123.760  19
  -1  -5  14 214.880 35.0781  19
  -1  -5  14 340.227 47.8153  14
  -1  -5  14 300.378 40.3682  23
  -1  -5  13 452.043 52.0459  19
  -1  -5  13 367.493 43.9150  23
  -1  -5  13 456.190 53.4654  14
  -1  -5  12 3150.38 139.146  14
  -1  -5  12 3227.89 128.545  23
  -1  -5  12 3011.42 132.502  19
  -1  -5  11 24207.2 440.124  14
  -1  -5  11 23440.3 406.997  23
  -1  -5  10 624.698 162.301   5
   1   5 -10 585.304 136.250  28
   1   5 -10 610.968 131.955  32
   1   5  -9 15085.8 686.741  28
  -1  -5   9 15753.6 806.827  10
  -1  -5   9 14619.9 757.509   5
  -1  -5   8 14221.1 692.806   5
   1   5  -8 13439.1 627.713  28
  -1  -5   8 15230.2 749.334  10
   1   5  -7 10337.5 653.683   2
  -1  -5   7 10261.4 508.339   1
  -1  -5   7 10854.4 578.974  34
   1   5  -7 10186.6 767.003  31
  -1  -5   7 11146.0 563.955   5
  -1  -5   7 11546.3 623.561  10
  -1  -5   6 13787.9 585.978   5
   1   5  -6 14478.8 910.916  31
   1   5  -6 12642.3 793.710   2
  -1  -5   6 14001.5 581.100   1
  -1  -5   6 15694.9 699.654  10
   1   5  -6 13765.3 468.808   6
  -1  -5   6 15453.5 676.191  34
  -1  -5   5 14246.1 623.529  34
  -1  -5   5 12522.4 508.142   5
  -1  -5   5 13693.2 624.065  10
  -1  -5   5 12802.0 547.321   1
   1   5  -5 13759.1 899.978  31
   1   5  -5 12927.4 920.942   2
  -1  -5   4 177.252 64.9379   1
  -1  -5   4 119.425 54.3467  34
  -1  -5   4 202.159 78.3622  10
   1   5  -4 137.443 135.560  31
   1   5  -4 330.365 289.112   2
   1   5  -3 133384. 3359.05  31
  -1  -5   3 134044. 2184.58  34
   1   5  -3 120720. 1761.78   4
  -1  -5   3 130542. 2118.15   1
   1   5  -3 113391. 3903.22   2
  -1  -5   3 139606. 2239.16  10
  -1  -5   2 14653.4 604.057  10
   1   5  -2 12932.1 983.362  31
  -1  -5   2 13181.6 550.312  34
   1   5  -2 13225.9 462.562   4
  -1  -5   2 13236.0 490.389  29
  -1  -5   1 9119.86 397.446  29
  -1  -5   1 9250.54 447.426  34
   1   5  -1 8841.19 409.496   4
   1   5  -1 9428.76 757.919   2
   1   5  -1 9038.04 718.294  31
   1   5   0 217.963 116.208   2
   1   5   0 211.397 104.215  31
  -1  -5   0 42.1571 29.2622  30
  -1  -5   0 84.1958 36.6015  34
  -1  -5   0 85.1182 41.8993  29
   1   5   0 18.3137 40.8151   4
  -1  -5  -1 46013.2 1124.30  30
  -1  -5  -1 48428.3 1087.54  34
  -1  -5  -1 46861.9 1004.69  29
   1   5   1 49481.8 1374.42   2
   1   5   1 48719.9 1198.12   4
   1   5   1 50680.9 1207.36  31
  -1  -5  -2 38701.2 904.310  29
   1   5   2 36891.6 938.482  31
  -1  -5  -2 36804.8 921.172  34
  -1  -5  -2 37037.0 1014.76  30
   1   5   2 40167.6 1133.56   4
   1   5   2 37342.5 1148.76   2
  -1  -5  -3 13439.1 526.402  29
   1   5   3 13107.4 671.295   4
  -1  -5  -3 12950.2 595.827  30
   1   5   3 12493.6 653.763   2
  -1  -5  -4 1401.96 201.767  30
  -1  -5  -4 1476.97 177.643  29
   1   5   4 1065.96 201.980   2
   1   5   4 1374.33 231.319   4
  -1  -5  -5 37.2613 46.5673  30
   1   5   5 61.6568 43.4480   4
  -1  -5  -5 98.8103 57.1775  29
   1   5   6 139.774 32.8926  16
  -1  -5  -6 82.9453 21.8892  38
   1   5   6 85.4173 22.2166  36
   1   5   6 112.578 25.1625  26
  -1  -5  -6 136.078 29.1227  46
   1   5   6 65.0559 23.2553  49
   1   5   7 14.6484 25.6674  16
   1   5   7-10.2370 27.4648  36
  -1  -5  -7 22.1522 16.8000  46
  -1  -5  -7 23.0474 13.9277  38
   1   5   7 53.6805 30.5122  49
   1   5   8 1137.45 86.3661  16
   1   5   8 1121.80 92.7235  49
   1   5   8 1013.31 69.9888  24
  -1  -5  -8 1087.01 77.1271  38
   1   5   8 1138.14 71.3400  26
   1   5   9 6607.05 175.426  26
   1   5   9 6238.94 202.382  16
  -1  -5  -9 6176.16 180.911  38
   1   5   9 6010.06 173.957  24
   1   5   9 6280.38 215.681  49
   1   5  10 29.1230 20.5750  16
   1   5  10 18.1078 22.7409  49
   1   5  10 26.5530 16.8293  26
   1   5  10 39.4225 19.5429  24
   1   5  11 4024.96 141.265  49
   1   5  11 4270.38 121.720  24
  -1  -5 -12 1514.77 65.4434  18
   1   5  12 1403.50 65.6780  49
  -1  -6  17 160.425 19.6702  23
  -1  -6  17 158.646 22.6154  19
  -1  -6  16 1460.53 73.7743  19
  -1  -6  16 1445.37 67.9003  23
  -1  -6  15 1204.29 70.2781  23
  -1  -6  15 1031.47 68.0318  19
  -1  -6  14 5452.61 177.607  19
  -1  -6  14 5411.35 165.353  23
  -1  -6  14 5471.92 181.043  14
  -1  -6  13 1526.36 87.4711  23
  -1  -6  13 1537.79 99.1535  14
  -1  -6  13 1507.07 94.4587  19
  -1  -6  12 4218.00 160.639  19
  -1  -6  12 4420.24 171.286  14
  -1  -6  12 4238.08 148.778  23
  -1  -6  11 30501.0 518.002  19
  -1  -6  11 31040.8 490.024  23
   1   6 -10 518.639 130.333  32
  -1  -6  10 432.408 137.999   5
  -1  -6  10 417.616 141.874  10
   1   6 -10 328.913 111.078  28
  -1  -6  10 354.489 44.0187  19
  -1  -6  10 355.760 48.5665  14
  -1  -6   9 17696.3 905.123  10
   1   6  -9 15381.3 724.429  28
  -1  -6   9 15908.1 794.397   5
  -1  -6   8 15532.9 740.317   5
  -1  -6   8 16644.8 850.184  10
   1   6  -8 13588.5 1093.65  31
   1   6  -8 15624.7 714.354  28
  -1  -6   7 41537.8 1173.21   5
  -1  -6   7 44238.1 1209.19   1
  -1  -6   7 45327.2 1331.19  34
   1   6  -7 41634.3 1172.27  28
  -1  -6   7 46010.3 1395.91  10
  -1  -6   6 6342.10 428.621   1
  -1  -6   6 6959.74 498.309  10
   1   6  -6 5492.58 706.304  31
   1   6  -6 5746.43 332.923   6
  -1  -6   6 6409.20 466.597  34
  -1  -6   5 98976.2 1986.97  34
  -1  -6   5 93441.9 1864.28   1
  -1  -6   5 97514.2 2021.48  10
  -1  -6   4 43533.5 1219.14  34
   1   6  -4 36452.6 1844.21  31
  -1  -6   4 42278.5 1221.11  10
  -1  -6   4 42785.1 1164.55   1
   1   6  -4 34184.8 2028.81   2
  -1  -6   3 27114.1 924.124  10
   1   6  -3 24612.5 1393.76  31
   1   6  -3 24624.4 1486.78   2
  -1  -6   3 27701.6 912.279   1
   1   6  -3 24568.0 666.728   4
  -1  -6   3 27935.4 915.972  34
  -1  -6   2 16136.7 614.401  29
   1   6  -2 17485.5 1039.84  31
  -1  -6   2 16143.3 668.114  34
   1   6  -2 18143.2 1083.05   2
   1   6  -2 15524.3 563.677   4
  -1  -6   2 16359.7 707.615  10
   1   6  -1 1971.59 292.642  31
  -1  -6   1 1586.28 200.725  34
   1   6  -1 1556.34 188.904   4
   1   6  -1 1705.74 289.642   2
  -1  -6   1 1398.13 176.326  29
   1   6   0 7495.93 490.677  31
   1   6   0 6631.47 423.593   4
  -1  -6   0 6612.79 384.165  29
   1   6   0 6947.03 532.225   2
  -1  -6   0 6113.63 392.550  34
  -1  -6  -1 29392.3 895.295  34
  -1  -6  -1 29215.6 966.310  30
   1   6   1 30873.6 942.604  31
  -1  -6  -1 30349.8 882.988  29
   1   6   1 32137.7 1036.62   4
   1   6   1 30965.8 1121.98   2
  -1  -6  -2 9380.39 480.914  29
   1   6   2 8096.29 550.598   2
   1   6   2 9329.95 575.439   4
  -1  -6  -2 8251.23 512.743  30
   1   6   3 24236.9 1013.26   2
  -1  -6  -3 25666.3 843.167  29
  -1  -6  -3 23691.7 921.191  30
   1   6   3 26406.9 1057.56   4
  -1  -6  -4 5178.70 437.059  30
  -1  -6  -4 4815.68 363.941  29
   1   6   4 4653.86 173.016  49
   1   6   4 5467.33 496.713   4
   1   6   4 5230.91 181.872  16
   1   6   4 5474.02 146.048  26
   1   6   5 15409.9 339.489  36
   1   6   5 13104.8 324.118  49
   1   6   5 13959.0 330.051  16
  -1  -6  -5 14134.8 308.706  46
   1   6   5 14988.3 281.490  26
   1   6   5 13043.6 310.456  44
  -1  -6  -5 14676.7 311.424  38
   1   6   6 661.567 54.2104  26
  -1  -6  -6 788.544 67.2106  38
   1   6   6 644.816 68.2308  16
   1   6   6 590.873 65.3399  49
  -1  -6  -6 677.064 61.5306  46
   1   6   6 648.507 64.5914  44
   1   6   7 7799.67 239.196  16
   1   6   7 7585.85 248.216  49
  -1  -6  -7 8045.89 223.258  38
  -1  -6  -7 7565.01 211.255  46
   1   6   8 3200.90 143.720  16
  -1  -6  -8 3147.60 129.214  38
   1   6   8 3315.76 154.633  49
   1   6   8 3551.32 122.951  26
   1   6   9 769.611 64.8823  16
   1   6   9 685.460 67.7976  49
  -1  -6  -9 741.903 55.4450  38
   1   6  10 233.983 36.6541  49
   1   6  10 257.708 35.2307  16
   1   6  11 3205.38 107.239  49
  -1  -6 -11 3316.16 102.958  18
   1   6  11 3318.12 96.9356  25
  -1  -7  17 1718.24 65.4089  19
  -1  -7  16-5.25734 19.5637  19
  -1  -7  16 28.3945 12.5322  23
  -1  -7  15 16.0117 18.9774  19
  -1  -7  15 50.9149 14.9736  23
  -1  -7  14 957.501 71.6858  19
  -1  -7  14 918.675 61.8314  23
  -1  -7  14 947.581 75.2740  14
  -1  -7  13 568.836 63.6104  14
  -1  -7  13 550.627 57.3546  19
  -1  -7  13 544.378 50.2307  23
  -1  -7  12 5919.29 194.069  19
  -1  -7  12 6322.90 205.808  14
  -1  -7  11 5623.39 191.482  19
  -1  -7  11 5870.05 196.769  14
  -1  -7  10 189.781 33.1526  19
  -1  -7  10 267.337 46.1877  14
  -1  -7   9 3657.38 434.921  10
   1   7  -9 3314.70 342.681  28
  -1  -7   9 3386.34 142.389  14
  -1  -7   9 3400.61 140.167  19
  -1  -7   8 25969.2 1149.30  10
   1   7  -8 23836.2 926.066  28
   1   7  -7 24780.3 923.140  28
  -1  -7   7 24940.8 1090.71  10
   1   7  -6 23.6416 22.1655   6
   1   7  -6 39.3062 128.822  31
   1   7  -6 267.588 271.366   2
  -1  -7   6 37.8785 62.7349  34
  -1  -7   6 49.1736 55.8855  10
  -1  -7   6 18.2232 44.3477   1
   1   7  -6 107.687 58.6974  28
  -1  -7   5 2252.74 291.199  34
  -1  -7   5 1735.89 245.795   1
  -1  -7   5 2045.77 283.562  10
   1   7  -5 2141.59 248.370  28
   1   7  -5 1511.16 389.470   2
   1   7  -5 2078.95 444.465  31
  -1  -7   4 13636.1 696.795   1
  -1  -7   4 12983.8 699.978  10
   1   7  -4 14271.4 1041.56  31
   1   7  -4 13779.0 1029.38   2
  -1  -7   4 13144.9 702.728  34
  -1  -7   3 4731.47 402.175  34
  -1  -7   3 4636.61 402.446   1
   1   7  -3 5523.36 583.428   2
   1   7  -3 5782.39 603.435  31
  -1  -7   3 4369.69 391.070  10
  -1  -7   2 15102.2 712.953  34
  -1  -7   2 14462.1 714.717  10
   1   7  -2 13538.9 581.708   4
   1   7  -2 16125.3 918.125   2
  -1  -7   2 14771.4 736.164   1
  -1  -7   2 13330.3 612.937  29
   1   7  -1 36425.1 1235.76  31
  -1  -7   1 34986.2 1046.36  29
   1   7  -1 33904.0 1030.90   4
  -1  -7   1 34697.7 1096.31  34
   1   7  -1 37860.6 1353.75   2
  -1  -7   0 16970.6 734.008  34
  -1  -7   0 16402.5 704.326  29
   1   7   0 17610.9 771.359  31
   1   7   0 18007.0 774.808   4
   1   7   0 16777.1 868.991   2
   1   7   1 36040.0 1106.66  31
   1   7   1 35402.9 1277.78   2
   1   7   2 11127.5 680.181   4
   1   7   2 9169.12 644.876   2
   1   7   3 10605.8 267.709  44
   1   7   3 10932.9 267.393  42
   1   7   3 11303.2 281.957  16
   1   7   3 10584.5 273.751  49
  -1  -7  -3 11292.9 267.339  38
  -1  -7  -3 10871.3 266.740  46
  -1  -7  -3 10804.6 262.296  45
  -1  -7  -4 20080.7 388.466  46
   1   7   4 18592.4 370.653  42
   1   7   4 19240.6 396.554  16
   1   7   4 18221.6 379.988  44
  -1  -7  -4 17608.3 359.326  45
   1   7   4 18626.5 395.811  49
  -1  -7  -4 19273.7 378.874  38
   1   7   5 423.769 54.2061  49
   1   7   5 319.907 48.9354  44
  -1  -7  -5 278.409 42.5346  46
   1   7   5 348.447 45.1577  42
   1   7   5 298.681 50.3027  16
  -1  -7  -5 300.160 43.0497  38
   1   7   6 1042.51 81.2078  44
   1   7   6 1043.16 89.2908  49
   1   7   6 1027.82 83.8294  16
  -1  -7  -6 1034.68 75.3827  46
  -1  -7  -6 938.046 72.8317  38
   1   7   7 7210.74 219.860  16
   1   7   7 6934.36 224.824  49
  -1  -7  -7 6923.98 200.817  38
   1   7   8 9164.80 237.769  16
  -1  -7  -8 8721.23 213.858  38
   1   7   8 9344.37 250.530  49
   1   7   9 1686.08 85.3651  16
  -1  -7  -9 1740.50 86.2743  18
  -1  -7  -9 1420.01 68.2247  38
   1   7   9 1592.07 88.5885  49
   1   7  10 145.291 22.6920  25
   1   7  10 126.941 22.0155  49
  -1  -7 -10 154.548 24.4893  18
  -1  -8  16-12.6300 15.4472  19
  -1  -8  15 692.005 55.5477  19
  -1  -8  14 269.242 39.7762  19
  -1  -8  14 314.019 46.9877  14
  -1  -8  13 532.563 62.2149  14
  -1  -8  13 536.923 55.8611  19
  -1  -8  12 8706.77 242.561  19
  -1  -8  12 8948.26 248.257  14
  -1  -8  11 5842.33 196.316  19
  -1  -8  11 6075.15 201.036  14
  -1  -8  10 2537.10 126.349  14
  -1  -8  10 2655.09 130.359  19
  -1  -8   9 36374.5 576.968  17
  -1  -8   9 36913.7 593.152  14
  -1  -8   8 63924.3 884.101  19
  -1  -8   8 62879.4 859.056  17
  -1  -8   8 62715.0 857.712  14
   1   8  -7 6792.14 722.320  31
   1   8  -7 5576.57 446.307  28
  -1  -8   7 6202.53 568.269  10
  -1  -8   6 7605.87 592.997  34
  -1  -8   6 7833.42 579.285   1
  -1  -8   6 7826.41 616.146  10
   1   8  -6 8561.08 799.549  31
   1   8  -6 7556.16 510.364  28
   1   8  -6 7327.63 704.311   2
   1   8  -6 6719.54 438.104   6
  -1  -8   5 7289.70 570.420  34
   1   8  -5 8517.58 767.618  31
   1   8  -5 7316.63 488.719  28
   1   8  -5 7723.42 696.002   2
  -1  -8   5 6851.77 562.067  10
  -1  -8   5 7414.68 562.924   1
  -1  -8   4 198.386 99.8110   1
  -1  -8   4 71.8283 72.9672  34
   1   8  -4-27.0673 102.800   2
   1   8  -4 30.3142 40.5460  28
  -1  -8   4 142.261 71.5936  10
   1   8  -4-1.87792 135.961  31
   1   8  -3 423.900 164.502  31
  -1  -8   3 281.892 121.123   1
  -1  -8   3 155.992 83.8553  10
  -1  -8   3 182.917 77.6604  34
   1   8  -3 192.209 105.150   2
   1   8  -2 11181.4 701.382  31
  -1  -8   2 9894.02 631.733  34
  -1  -8   2 8853.72 593.612  10
  -1  -8   2 9703.91 649.752   1
   1   8  -2 10223.4 715.623   2
   1   8  -1 7923.35 549.522  31
  -1  -8   1 6924.75 562.338   1
   1   8  -1 6773.73 474.511   4
   1   8  -1 7170.22 585.647   2
  -1  -8   0 943.207 72.8730  46
  -1  -8   0 974.454 71.8260  18
   1   8   0 1046.41 199.788   4
   1   8   0 850.357 71.0617  44
  -1  -8   0 953.598 70.0226  11
   1   8   0 965.172 73.4460  42
  -1  -8   0 1020.43 77.4211  45
  -1  -8   0 1093.06 78.3924  38
  -1  -8  -1 573.748 56.2781  11
  -1  -8  -1 577.226 55.7300  38
  -1  -8  -1 584.657 57.3283  18
  -1  -8  -1 542.979 56.6558  46
  -1  -8  -1 549.910 56.3488  45
   1   8   1 495.994 53.2179  16
   1   8   1 533.575 57.1935  44
   1   8   1 598.936 60.2996  42
   1   8   1 527.377 54.1380  49
  -1  -8  -2 36.6444 18.3607  38
   1   8   2 37.0883 19.4030  49
  -1  -8  -2 68.2682 19.3128  18
  -1  -8  -2 83.9365 22.6625  45
   1   8   2 90.1677 25.4879  44
   1   8   2 62.3673 23.5734  16
   1   8   2 77.8095 22.4174  41
  -1  -8  -2 66.1044 24.5994  46
   1   8   2 105.823 28.4302  42
   1   8   3 12959.2 317.923  49
  -1  -8  -3 13797.8 313.450  18
   1   8   3 13692.8 321.199  16
  -1  -8  -3 12667.3 299.065  45
  -1  -8  -3 13118.8 313.078  46
   1   8   3 12606.1 309.414  44
   1   8   3 13067.1 305.596  42
  -1  -8  -3 13175.6 308.239  38
   1   8   4 527.891 59.9860  44
   1   8   4 407.825 54.0875  49
  -1  -8  -4 464.300 54.0497  46
  -1  -8  -4 509.341 57.8772  18
   1   8   4 500.403 57.8746  16
  -1  -8  -4 446.209 49.8996  45
   1   8   4 504.450 53.6095  42
  -1  -8  -4 470.024 54.7165  38
  -1  -8  -5 240.671 37.5469  38
  -1  -8  -5 190.956 34.6132  46
   1   8   5 196.222 38.1645  44
   1   8   5 212.720 38.6241  16
   1   8   5 190.762 34.6670  42
   1   8   5 218.207 43.9162  49
  -1  -8  -5 197.621 36.7830  18
  -1  -8  -6 928.411 74.0612  18
   1   8   6 809.317 70.4466  16
   1   8   6 758.353 66.2141  44
   1   8   6 996.072 80.4216  49
  -1  -8  -6 768.444 62.5526  46
  -1  -8  -6 772.562 64.2516  38
   1   8   7 16.6781 21.2046  49
  -1  -8  -7 24.5593 17.7287  38
   1   8   7 53.2072 19.5018  44
  -1  -8  -7 18.7909 19.0522  18
  -1  -8  -7 19.7561 15.2184  46
   1   8   7 47.8548 23.6048  16
   1   8   8 940.898 65.5355  49
   1   8   8 953.235 62.6686  16
  -1  -8  -8 989.543 63.5214  18
  -1  -8  -8 834.040 52.3168  38
   1   8   9 435.674 38.3661  49
  -1  -8  -9 420.972 35.5915  18
   1   8   9 422.860 34.8049  25
  -1  -9  16 63.1348 15.3264  19
  -1  -9  15 1130.29 65.3725  19
  -1  -9  14 898.121 66.4613  19
  -1  -9  13 5170.17 172.499  19
  -1  -9  13 5229.93 177.574  14
  -1  -9  12 57.7626 31.7111  14
  -1  -9  12 18.0017 21.4023  19
  -1  -9  11 586.096 61.9418  19
  -1  -9  11 602.125 64.0900  14
  -1  -9  10 21508.9 422.982  19
  -1  -9  10 21074.3 406.457  14
  -1  -9  10 20095.6 388.793  17
  -1  -9   9 154.131 39.2929  14
  -1  -9   9 254.543 43.7643  19
  -1  -9   9 195.982 38.7937  17
  -1  -9   8 12231.6 284.414  11
  -1  -9   8 12210.9 285.187  13
  -1  -9   8 12176.3 290.345  17
  -1  -9   8 12799.0 309.977  19
  -1  -9   8 12365.8 284.299  14
  -1  -9   8 12201.0 296.108  38
  -1  -9   7 21642.1 412.960  17
  -1  -9   7 21503.2 411.895  13
  -1  -9   7 22139.6 427.202  38
  -1  -9   7 21156.0 404.179  11
  -1  -9   6 87.8903 27.1354  17
  -1  -9   6 77.4137 24.2406  11
  -1  -9   6 92.2358 25.7665  46
  -1  -9   6 121.052 28.7868  13
  -1  -9   6 85.3764 26.8213  38
  -1  -9   5 1249.59 85.8041  11
  -1  -9   5 1252.70 85.8423  17
  -1  -9   5 1230.66 87.5749  46
  -1  -9   5 1161.48 84.8120  38
   1   9  -4 1243.77 79.5934  42
  -1  -9   4 1130.02 85.1332  38
  -1  -9   4 1177.72 84.0728  11
  -1  -9   4 1106.29 80.9445  17
   1   9  -4 1337.84 97.0451  44
  -1  -9   4 1146.31 83.7225  46
  -1  -9   4 1163.39 84.4458  45
  -1  -9   3 17381.1 363.815  11
  -1  -9   3 17171.5 364.404  45
  -1  -9   3 17076.1 353.305  17
   1   9  -3 17849.3 352.899  42
  -1  -9   3 16764.6 359.881  46
  -1  -9   3 17514.9 367.231  38
   1   9  -2 1219.17 82.7425  42
  -1  -9   2 1250.13 84.0593  18
  -1  -9   2 1283.98 88.0356  11
  -1  -9   2 1142.84 80.8601  17
   1   9  -2 1250.09 88.6087  44
  -1  -9   2 1146.72 87.1429  45
  -1  -9   2 1318.55 90.5966  46
  -1  -9   2 1320.51 89.8867  38
  -1  -9   1 33917.5 543.441  17
  -1  -9   1 33975.0 566.644  11
   1   9  -1 34382.3 572.518  44
  -1  -9   1 33349.8 567.463  45
  -1  -9   1 33282.0 562.572  38
  -1  -9   1 33535.2 566.392  46
   1   9  -1 35192.2 566.877  42
  -1  -9   1 35315.5 560.913  18
  -1  -9   0 922.037 77.6245  38
  -1  -9   0 976.016 78.4561  46
   1   9   0 1068.61 83.3342  42
  -1  -9   0 1061.45 79.1803  11
   1   9   0 960.468 77.6471  44
  -1  -9   0 1016.71 77.4515  18
  -1  -9   0 1026.89 81.2263  45
  -1  -9  -1 3718.33 149.985  18
  -1  -9  -1 3428.71 140.719  11
   1   9   1 3631.75 145.226  16
   1   9   1 3595.75 143.451  41
   1   9   1 3485.75 145.918  49
   1   9   1 3630.34 153.222  42
  -1  -9  -1 3564.94 153.808  46
  -1  -9  -1 3557.15 152.994  45
   1   9   1 3481.68 150.971  44
  -1  -9  -1 3448.89 148.415  38
  -1  -9  -2 2703.94 128.422  18
  -1  -9  -2 2729.15 130.025  45
   1   9   2 2534.28 123.033  16
   1   9   2 2501.28 116.069  41
   1   9   2 2659.45 129.515  49
   1   9   2 2531.02 130.422  44
  -1  -9  -2 2434.06 124.417  38
   1   9   2 2495.62 125.459  42
  -1  -9  -2 2623.33 130.975  46
   1   9   3 2639.67 126.525  42
   1   9   3 2695.99 132.177  49
  -1  -9  -3 2518.17 122.688  18
   1   9   3 2598.03 124.919  16
  -1  -9  -3 2433.57 123.948  38
   1   9   3 2592.15 131.215  44
  -1  -9  -3 2621.22 130.393  46
  -1  -9  -3 2431.84 118.479  45
  -1  -9  -4 7063.93 207.930  18
   1   9   4 6885.56 216.226  44
   1   9   4 7211.46 212.719  16
  -1  -9  -4 6859.57 208.260  46
   1   9   4 6884.99 201.478  42
  -1  -9  -4 6729.57 207.779  38
   1   9   4 6992.85 217.718  49
   1   9   5 248.155 38.5712  16
  -1  -9  -5 293.346 40.7151  18
   1   9   5 230.993 38.3926  44
  -1  -9  -5 200.940 33.5158  46
   1   9   5 240.731 40.4023  49
   1   9   5 239.202 34.2942  42
  -1  -9  -5 266.799 38.1620  38
  -1  -9  -6 96.8926 24.0452  18
   1   9   6 131.880 28.7194  44
  -1  -9  -6 104.778 23.4900  38
  -1  -9  -6 120.037 24.0816  46
   1   9   6 116.717 25.2817  16
   1   9   6 90.5506 24.0146  49
  -1  -9  -7 319.528 35.2547  18
   1   9   7 341.128 36.8696  49
   1   9   7 335.129 34.6063  25
  -1  -9  -7 280.566 30.1593  38
  -1  -9  -8 53.8071 14.3172  18
   1   9   8 72.8456 16.0032  49
   1   9   8 85.4433 16.2098  25
  -1 -10  15 16.7031 13.3374  19
  -1 -10  14 1203.53 70.3053  19
  -1 -10  13 3438.39 132.079  19
  -1 -10  12 291.635 42.8239  14
  -1 -10  12 219.455 37.1796  19
  -1 -10  11 22.3239 15.7984  17
  -1 -10  11 28.7685 25.6087  14
  -1 -10  11 69.2027 23.1402  19
  -1 -10  10 500.315 52.4373  17
  -1 -10  10 527.863 55.5187  14
  -1 -10  10 524.901 59.2094  19
  -1 -10   9 3438.16 138.083  13
  -1 -10   9 3538.98 153.652  19
  -1 -10   9 3206.47 140.354  17
  -1 -10   9 3330.27 136.519  14
  -1 -10   8 640.439 61.4399  11
  -1 -10   8 637.995 64.1050  19
  -1 -10   8 673.733 65.3702  38
  -1 -10   8 605.753 60.8798  17
  -1 -10   8 619.345 58.4302  13
  -1 -10   7 172.017 34.5315  11
  -1 -10   7 117.112 31.2314  38
  -1 -10   7 89.3186 24.4876  17
  -1 -10   7 146.230 29.1291  13
  -1 -10   6 1520.82 97.8419  11
  -1 -10   6 1547.54 98.9918  13
  -1 -10   6 1576.47 99.2941  46
  -1 -10   6 1505.63 97.4377  17
   1  10  -6 1699.36 99.4137  44
  -1 -10   6 1540.16 102.045  38
   1  10  -5 34231.9 557.965  44
  -1 -10   5 33647.5 558.924  17
  -1 -10   5 33764.4 557.346  13
  -1 -10   5 33252.6 561.713  46
  -1 -10   5 32817.8 555.382  11
  -1 -10   5 32869.0 567.627  38
  -1 -10   4 5380.58 190.131  11
  -1 -10   4 5727.45 192.677  17
   1  10  -4 5454.02 175.895  42
   1  10  -4 5627.39 189.596  44
  -1 -10   4 5389.94 191.329  46
  -1 -10   4 5181.19 190.429  38
  -1 -10   3 30.1020 21.5714  11
  -1 -10   3 67.3503 25.1806  45
  -1 -10   3 32.0827 16.4358  18
  -1 -10   3 93.3201 28.1109  17
  -1 -10   3 41.7927 19.3450  46
   1  10  -3 105.234 27.7636  44
   1  10  -3 89.1935 25.5911  42
  -1 -10   3 81.9574 23.2142  38
  -1 -10   2 597.249 63.4758  46
  -1 -10   2 553.345 60.8692  11
   1  10  -2 566.913 60.0048  44
  -1 -10   2 629.656 62.2827  18
  -1 -10   2 566.678 59.3104  17
  -1 -10   2 773.842 71.8336  38
  -1 -10   2 627.395 65.4176  45
   1  10  -2 584.710 59.6044  42
  -1 -10   1 11419.8 267.652  17
   1  10  -1 12507.5 298.908  42
   1  10  -1 12062.7 296.548  44
  -1 -10   1 12001.6 288.182  18
  -1 -10   1 11971.3 299.882  45
   1  10  -1 12237.4 292.231  41
  -1 -10   1 11921.4 298.472  46
  -1 -10   1 12293.1 296.105  11
  -1 -10   1 11596.1 297.340  38
  -1 -10   0 5758.88 197.713  38
   1  10   0 6031.03 201.203  44
   1  10   0 6230.89 201.759  42
   1  10   0 5818.08 188.541  41
  -1 -10   0 5860.22 203.239  46
  -1 -10   0 6014.32 203.123  45
  -1 -10   0 6102.86 195.768  18
  -1 -10   0 5887.24 190.542  11
  -1 -10  -1 19076.5 367.254  11
  -1 -10  -1 19822.6 389.062  18
   1  10   1 19348.8 363.645  16
   1  10   1 20722.5 403.356  42
  -1 -10  -1 19645.1 402.290  46
   1  10   1 19516.5 374.474  41
  -1 -10  -1 20044.9 396.426  45
   1  10   1 20474.4 407.926  44
  -1 -10  -1 19442.6 399.587  38
   1  10   2 3184.14 133.277  49
  -1 -10  -2 2993.67 130.426  18
   1  10   2 2985.85 123.431  16
  -1 -10  -2 3098.68 138.786  46
   1  10   2 3195.43 137.805  42
   1  10   2 2965.10 121.762  41
  -1 -10  -2 3081.72 134.695  38
   1  10   2 3311.27 145.083  44
  -1 -10  -2 3036.90 131.287  45
   1  10   3 1390.34 85.3256  49
   1  10   3 1504.89 84.9949  16
   1  10   3 1508.96 95.0074  44
  -1 -10  -3 1546.43 91.7636  46
  -1 -10  -3 1458.31 87.5431  18
   1  10   3 1570.28 89.6408  42
  -1 -10  -3 1373.20 87.4232  38
   1  10   4 310.881 41.8308  44
  -1 -10  -4 271.111 36.9780  18
  -1 -10  -4 266.186 37.5080  46
   1  10   4 314.708 38.7877  16
  -1 -10  -4 289.860 38.3444  38
   1  10   4 267.289 35.8102  42
   1  10   4 345.776 42.0798  49
   1  10   4 304.186 35.8179  25
  -1 -10  -5 402.918 38.8515  46
   1  10   5 500.541 44.1273  49
  -1 -10  -5 438.281 42.4380  18
   1  10   5 483.789 41.8407  25
   1  10   5 428.136 36.5870  42
   1  10   5 439.389 43.1683  44
   1  10   5 485.833 41.8272  16
  -1 -10  -5 448.113 41.3966  38
  -1 -10  -6 31.1144 11.6351  38
  -1 -10  -6 16.8083 12.4135  18
   1  10   6 10.9623 11.0144  49
   1  10   6 27.6968 13.1423  25
  -1 -11  15 112.196 17.3909  19
  -1 -11  14 32.8366 14.9483  19
  -1 -11  13 13.2741 15.8178  19
  -1 -11  12 2504.30 107.584  19
  -1 -11  11 24.2587 18.4914  19
  -1 -11  10 1803.32 96.5887  17
  -1 -11  10 1997.64 106.752  19
  -1 -11   9 16.8415 18.4186  11
  -1 -11   9 17.3104 22.8639  17
  -1 -11   9-10.3082 21.9387  13
  -1 -11   9 30.6847 21.1478  19
  -1 -11   8 11244.8 277.460  38
  -1 -11   8 10794.7 264.228  11
  -1 -11   8 11228.1 276.623  17
  -1 -11   8 10933.3 267.976  13
  -1 -11   8 10808.6 272.123  19
  -1 -11   7 722.448 64.5045  46
  -1 -11   7 753.938 69.5599  38
  -1 -11   7 774.048 67.9428  17
  -1 -11   7 730.005 66.0636  11
  -1 -11   7 731.771 66.1305  13
  -1 -11   6 4194.38 161.022  13
  -1 -11   6 4269.99 162.532  17
  -1 -11   6 4296.92 169.825  38
  -1 -11   6 4298.42 165.485  46
  -1 -11   6 4224.25 162.149  11
   1  11  -6 4142.32 146.475  44
  -1 -11   5 456.315 53.0135  13
   1  11  -5 379.446 46.5433  44
  -1 -11   5 407.781 50.6620  46
   1  11  -5 430.280 45.6341  42
  -1 -11   5 437.465 52.2829  11
  -1 -11   5 477.574 53.9566  17
  -1 -11   5 412.384 54.2770  38
  -1 -11   4 660.925 64.4286  13
  -1 -11   4 711.622 66.9018  11
  -1 -11   4 627.999 62.0807  17
  -1 -11   4 705.547 67.3298  38
  -1 -11   4 662.205 65.0567  46
   1  11  -4 621.293 59.3390  42
   1  11  -4 647.316 59.0174  44
  -1 -11   3 7755.27 229.860  11
  -1 -11   3 7644.42 216.962  18
  -1 -11   3 7661.16 217.916  17
   1  11  -3 7403.68 214.987  44
   1  11  -3 7472.77 212.172  42
  -1 -11   3 7820.23 229.729  46
  -1 -11   3 7566.12 221.696  13
   1  11  -3 7895.32 222.366  41
  -1 -11   3 7390.33 228.786  38
  -1 -11   2 250.490 39.8400  17
  -1 -11   2 237.206 42.0936  38
  -1 -11   2 249.219 39.0089  18
  -1 -11   2 237.421 40.4230  11
  -1 -11   2 288.154 45.5638  46
   1  11  -2 254.189 41.0377  42
   1  11  -2 245.460 40.1858  41
   1  11  -2 215.041 36.5120  44
  -1 -11   2 269.469 43.4377  13
  -1 -11   1 11.8590 20.5636  38
   1  11  -1 11.0149 19.2134  41
   1  11  -1 24.7008 21.4245  44
  -1 -11   1 19.1119 19.4854  18
  -1 -11   1 13.6451 19.0838  46
   1  11  -1 4.84194 19.3697  42
  -1 -11   1 8.27385 18.5028  11
  -1 -11   1-6.08346 17.4838  13
  -1 -11   0 2758.77 118.528  11
  -1 -11   0 2916.58 123.108  13
   1  11   0 2957.20 132.198  44
  -1 -11   0 3116.84 136.834  46
   1  11   0 2850.84 121.038  41
   1  11   0 3137.37 131.249  42
  -1 -11   0 2898.71 134.067  38
  -1 -11   0 2775.14 122.378  18
  -1 -11  -1 491.140 44.5736  11
  -1 -11  -1 478.376 49.4212  18
   1  11   1 522.296 52.1069  42
  -1 -11  -1 504.377 54.8670  46
   1  11   1 531.448 56.2909  44
   1  11   1 507.041 48.7057  41
  -1 -11  -1 465.248 45.5572  13
  -1 -11  -1 484.328 51.3929  38
   1  11   2 35.6277 20.2866  44
  -1 -11  -2 22.1406 18.6814  38
  -1 -11  -2 6.17160 17.1747  46
   1  11   2 8.00235 16.2953  42
   1  11   2 21.8225 12.5200  25
  -1 -11  -2 24.7900 14.1090  18
  -1 -11  -3 9.08186 15.2948  38
   1  11   3 13.4184 10.4727  25
   1  11   3-29.0059 19.3405  44
  -1 -11  -3 15.5164 13.4689  46
   1  11   3 3.33427 13.6432  42
  -1 -11  -3 6.21108 12.6585  18
   1  11   4 820.869 46.4328  42
   1  11   4 787.196 42.5917  25
  -1 -11  -4 786.912 49.6653  38
   1  11   4 881.614 54.4395  44
  -1 -11  -4 833.572 50.6090  18
  -1 -11  -4 783.304 48.5954  46
  -1 -12  13 724.056 45.5367  19
  -1 -12  12 130.412 23.3748  19
  -1 -12  11 2492.29 100.131  19
  -1 -12  10 33.8053 18.8957  19
   1  12  -9 2242.71 87.3077  41
  -1 -12   9 2440.15 108.428  17
  -1 -12   9 2457.37 107.523  19
  -1 -12   9 2330.03 100.221  11
  -1 -12   9 2500.88 104.671  13
  -1 -12   8 5720.06 171.807  11
  -1 -12   8 5930.77 176.810  17
   1  12  -8 5398.21 153.346  41
  -1 -12   8 5533.35 170.367  19
  -1 -12   8 5774.05 170.829  13
  -1 -12   8 5742.12 175.811  38
  -1 -12   7 8231.03 223.482  38
  -1 -12   7 7901.55 210.043  19
  -1 -12   7 8813.78 224.448  17
  -1 -12   7 8211.78 216.095  11
  -1 -12   7 8377.02 215.747  13
   1  12  -7 8393.38 205.142  41
  -1 -12   6 1232.49 81.1939  11
  -1 -12   6 1250.51 82.1913  17
  -1 -12   6 1210.93 83.1790  38
   1  12  -6 1111.99 67.3323  44
   1  12  -6 1281.27 78.0758  41
  -1 -12   6 1195.41 79.4471  13
  -1 -12   6 1100.33 77.6105  46
  -1 -12   5 6084.19 187.515  11
  -1 -12   5 5890.69 180.196  17
   1  12  -5 5427.09 162.381  44
  -1 -12   5 5733.21 181.593  46
   1  12  -5 5455.11 155.227  42
  -1 -12   5 5641.66 177.815  13
   1  12  -5 5898.55 175.684  41
  -1 -12   5 5807.25 186.556  38
   1  12  -4 4548.25 150.683  44
  -1 -12   4 4679.90 164.688  11
   1  12  -4 4723.88 155.411  41
   1  12  -4 4671.57 148.094  42
  -1 -12   4 4633.15 164.426  38
  -1 -12   4 4835.54 158.664  17
  -1 -12   4 4877.15 164.879  13
  -1 -12   4 4670.48 161.913  46
  -1 -12   3 1625.81 86.6648  17
   1  12  -3 1620.73 89.1936  41
  -1 -12   3 1722.95 94.9582  11
  -1 -12   3 1677.80 95.6362  46
   1  12  -3 1733.25 92.1674  44
  -1 -12   3 1614.12 91.4317  13
   1  12  -3 1651.26 87.4086  42
  -1 -12   3 1664.62 96.3871  38
  -1 -12   2 2148.79 101.285  13
  -1 -12   2 2002.81 93.5644  18
  -1 -12   2 1882.88 86.0998  17
  -1 -12   2 2128.90 106.529  46
  -1 -12   2 1990.21 102.882  38
   1  12  -2 2082.82 97.8242  42
   1  12  -2 2124.69 102.263  44
  -1 -12   2 2076.98 100.814  11
   1  12  -2 2134.08 99.0005  41
  -1 -12   1-18.2845 20.6388  38
  -1 -12   1 46.5196 18.5799  18
  -1 -12   1 37.8804 23.0069  46
  -1 -12   1 38.7059 20.3662  13
  -1 -12   1 40.9873 19.9212  11
   1  12  -1 26.7805 17.4653  41
   1  12  -1 16.1015 19.0729  44
   1  12  -1 41.1455 22.1085  42
  -1 -12   0 3688.19 131.292  46
  -1 -12   0 3545.57 113.130  11
  -1 -12   0 3630.31 116.910  13
  -1 -12   0 3573.57 119.252  18
   1  12   0 3896.42 134.706  44
   1  12   0 3673.27 120.305  41
   1  12   0 3928.99 128.421  42
  -1 -12   0 3442.71 126.398  38
  -1 -12  -1 1258.38 69.8790  46
  -1 -12  -1 1131.87 61.0761  18
   1  12   1 1226.28 60.0678  41
   1  12   1 1243.24 71.0982  44
   1  12   1 1227.37 65.9825  42
  -1 -12  -1 1240.10 67.6843  38
   1  12   2 507.603 40.9694  44
   1  12   2 535.197 38.7723  42
  -1 -12  -2 492.614 37.0161  18
  -1 -12  -2 517.076 40.1830  46
  -1 -12  -2 486.434 39.2224  38
  -1 -13  11 1832.90 69.7086  19
  -1 -13  10 4776.74 123.435  19
   1  13 -10 4125.23 96.8748  20
  -1 -13   9 1683.23 74.2336  19
  -1 -13   9 1794.44 75.7419  13
  -1 -13   8 621.746 46.3270  19
   1  13  -8 682.887 44.4069  41
  -1 -13   8 726.607 50.8561  13
  -1 -13   7 840.207 54.4110  19
  -1 -13   7 858.883 57.2298  11
  -1 -13   7 851.214 58.5928  17
  -1 -13   7 876.881 58.6221  38
   1  13  -7 850.188 53.1865  41
  -1 -13   7 855.664 56.5654  13
  -1 -13   6 640.468 50.0742  17
  -1 -13   6 576.480 48.6921  13
   1  13  -6 546.889 43.9897  41
  -1 -13   6 524.201 43.1027  19
  -1 -13   6 573.775 48.9030  38
  -1 -13   6 522.427 46.9119  11
   1  13  -5 8.01998 12.8414  41
  -1 -13   5 25.4753 13.5505  19
  -1 -13   5 2.21777 15.2075  17
  -1 -13   5 0.18152 15.3938  11
   1  13  -5 19.6732 12.5704  44
  -1 -13   5 45.0951 17.3667  13
  -1 -13   5 56.1289 21.3071  46
   1  13  -5-2.48262 10.4514  42
  -1 -13   5 80.6345 21.9395  38
  -1 -13   4 670.069 51.4459  46
   1  13  -4 642.496 46.8806  44
  -1 -13   4 708.891 52.0046  13
  -1 -13   4 660.418 51.7036  11
   1  13  -4 656.691 48.5238  41
   1  13  -4 647.243 44.6231  42
  -1 -13   4 662.894 52.6392  38
  -1 -13   3 598.955 48.7523  38
  -1 -13   3 587.747 46.5741  11
  -1 -13   3 650.045 48.1527  13
   1  13  -3 582.960 45.2163  41
   1  13  -3 593.033 45.6379  44
  -1 -13   3 637.313 48.8183  46
   1  13  -3 592.443 43.8318  42
   1  13  -2 2.46719 11.1967  41
   1  13  -2 5.84931 10.8288  42
   1  13  -2 20.4136 10.8111  20
  -1 -13   2 27.0531 13.8462  11
  -1 -13   2 19.7179 15.2024  13
  -1 -13   2 20.0649 14.0238  38
   1  13  -2 10.2757 11.8902  44
  -1 -13   2 13.4637 14.3270  46
   1  13  -1 4168.37 109.111  41
   1  13  -1 4267.51 112.654  42
  -1 -13   1 4143.39 105.879  13
   1  13  -1 4202.94 117.152  44
  -1 -13   1 4172.45 117.193  38
  -1 -13   1 4141.05 116.752  46
   1  14  -7 424.451 29.2271  20
   1  14  -6 53.7280 12.8244  20
  -1 -14   6 57.5904 14.0039  13
  -2  14  -5 173.736 19.9517  20
   2 -14   5 157.983 19.9775  19
  -2  14  -6 2965.28 83.3154  20
   2 -14   6 2921.05 86.3244  13
   2 -14   7 68.4149 14.1861  19
  -2  14  -7 72.6911 13.6161  20
   2 -14   7 41.0267 11.6031  13
   2 -13   0 414.997 36.1700  18
  -2  13   0 430.362 34.2604  41
  -2  13   0 432.183 33.2182  42
   2 -13   1 237.086 29.7634  18
   2 -13   1 230.339 26.5114  38
  -2  13  -1 224.517 27.9856  41
  -2  13  -1 229.155 26.9370  42
   2 -13   2 3722.68 115.830  38
   2 -13   2 3629.53 120.746  18
  -2  13  -2 3831.88 113.887  42
  -2  13  -2 3797.28 106.700  20
  -2  13  -2 3944.69 121.810  41
   2 -13   3 87.3771 22.2156  18
  -2  13  -3 123.005 25.0846  41
  -2  13  -3 107.116 20.9696  20
  -2  13  -3 125.857 23.4050  42
   2 -13   3 98.9602 23.3969  38
   2 -13   3 122.347 22.2143  13
  -2  13  -4 5227.63 145.598  41
   2 -13   4 4957.46 149.132  18
  -2  13  -4 4762.75 127.769  42
   2 -13   4 4897.33 140.207  13
   2 -13   4 5018.22 148.212  38
  -2  13  -4 5324.28 142.845  20
  -2  13  -5 2436.30 94.8652  20
  -2  13  -5 2527.84 96.7528  41
   2 -13   5 2312.38 100.040  18
  -2  13  -5 2291.04 78.8341  43
   2 -13   5 2537.97 100.452  13
  -2  13  -6 843.377 49.0173  43
   2 -13   6 779.673 57.3288  18
   2 -13   6 794.195 56.4553  13
  -2  13  -6 746.558 49.8054  41
  -2  13  -6 839.016 54.9444  20
   2 -13   7 70.6143 19.3380  18
  -2  13  -7 85.8341 16.6723  43
  -2  13  -7 68.0335 17.2866  20
   2 -13   7 72.3373 19.2321  13
   2 -13   7 99.6860 23.6123  19
   2 -13   8 2490.81 97.8016  13
   2 -13   8 2412.79 94.5560  19
   2 -13   8 2452.01 96.7226  18
  -2  13  -8 2566.16 87.5641  43
  -2  13  -8 2442.31 88.1681  20
  -2  13  -9 273.823 28.4169  43
   2 -13   9 289.744 32.0410  19
  -2  13  -9 272.766 27.1801  20
   2 -13   9 293.248 32.9996  13
   2 -13   9 284.424 31.1510  18
   2 -13  10 1199.47 58.1850  19
   2 -13  10 1123.37 52.4392  12
  -2  13 -10 1160.26 53.4641  43
   2 -13  10 1162.92 58.2421  13
  -2  13 -11 144.322 18.4487  43
   2 -13  11 141.515 18.6736  19
   2 -13  11 130.880 18.1574  26
  -2  12   3 6.02973 9.32230  44
   2 -12  -3 14.2633 10.1877  18
   2 -12  -2 610.735 43.0420  37
   2 -12  -2 671.725 49.4986  18
  -2  12   2 599.936 36.3668  25
  -2  12   2 599.899 42.9505  41
  -2  12   2 620.592 44.5460  42
  -2  12   2 623.021 46.3715  44
   2 -12  -1 1643.88 83.3889  18
  -2  12   1 1500.15 76.4173  41
   2 -12  -1 1470.87 71.6818  46
   2 -12  -1 1497.32 72.5117  37
  -2  12   1 1609.17 78.5583  42
   2 -12  -1 1397.57 67.3591  38
  -2  12   1 1579.15 78.9463  44
  -2  12   0 1032.92 67.8469  42
   2 -12   0 948.078 60.1380  37
  -2  12   0 1067.35 67.4494  44
   2 -12   0 996.018 68.7241  18
  -2  12   0 1023.76 68.1482  41
   2 -12   0 907.505 61.3901  38
   2 -12   0 987.698 64.7256  46
   2 -12   1 1267.20 80.8386  18
   2 -12   1 1331.80 78.7078  38
   2 -12   1 1331.63 80.3080  46
   2 -12   1 1176.85 65.9530  13
  -2  12  -1 1365.54 72.1065  20
   2 -12   1 1284.50 72.7683  37
  -2  12  -1 1388.72 80.4871  42
  -2  12  -1 1427.32 83.2553  41
  -2  12  -1 1366.92 77.4993  44
   2 -12   2 404.066 47.4974  46
   2 -12   2 390.081 46.7598  18
  -2  12  -2 450.583 49.3208  41
  -2  12  -2 437.368 47.2165  42
   2 -12   2 425.394 43.5431  37
   2 -12   2 460.390 45.5560  13
  -2  12  -2 406.101 42.4215  44
   2 -12   2 401.565 45.6208  38
  -2  12  -2 516.080 47.9494  20
  -2  12  -3 3935.34 136.896  20
  -2  12  -3 4031.39 146.265  41
  -2  12  -3 3871.09 136.650  42
   2 -12   3 3479.70 131.754  13
   2 -12   3 3561.94 143.986  18
   2 -12   3 3624.77 144.434  46
   2 -12   3 3626.40 141.564  38
   2 -12   4 116.472 28.5846  38
   2 -12   4 114.494 28.8160  18
  -2  12  -4 87.4654 22.3247  42
   2 -12   4 81.4340 25.6658  13
  -2  12  -4 137.615 30.9849  41
  -2  12  -4 106.669 21.0922  43
  -2  12  -4 107.263 25.6464  20
   2 -12   5 166.835 34.6578  38
   2 -12   5 207.529 38.0558  18
  -2  12  -5 192.063 28.3851  42
  -2  12  -5 187.049 32.4681  41
  -2  12  -5 206.976 33.4339  20
  -2  12  -5 204.809 29.5776  43
   2 -12   5 208.010 34.8645  13
   2 -12   6 4843.50 170.109  18
  -2  12  -6 4828.95 151.429  41
  -2  12  -6 4948.46 146.931  43
   2 -12   6 4848.60 164.146  13
   2 -12   6 4939.20 172.593  38
  -2  12  -6 5200.52 160.288  20
   2 -12   7 2629.94 121.750  18
  -2  12  -7 2696.29 105.432  43
   2 -12   7 2584.59 117.316  13
  -2  12  -7 2728.66 111.234  20
   2 -12   8 278.691 39.6430  19
   2 -12   8 270.448 41.0121  18
  -2  12  -8 299.519 36.5020  43
   2 -12   8 353.175 44.0569  13
  -2  12  -8 313.994 36.8396  20
   2 -12   9 115.238 27.6763  19
   2 -12   9 121.704 28.6621  18
   2 -12   9 85.9214 24.4414  13
  -2  12  -9 95.0414 22.3446  43
  -2  12  -9 101.570 21.4103  20
   2 -12  10 3381.36 119.217  13
  -2  12 -10 3096.67 96.7092  20
   2 -12  10 3406.06 120.541  19
  -2  12 -10 3535.95 111.686  43
   2 -12  11 467.103 40.8817  19
  -2  12 -11 498.179 38.0756  43
   2 -12  12 451.547 38.1625  26
  -2  12 -12 369.733 29.9961  43
   2 -12  12 395.629 33.6390  19
   2 -12  13 2500.96 77.2417  26
   2 -11  -5 4893.81 123.242  37
  -2  11   5 5144.32 117.127  25
  -2  11   5 4971.11 127.884  44
   2 -11  -5 4870.51 121.569  18
   2 -11  -4 16.9179 14.2136  37
  -2  11   4 13.9792 12.5221  42
   2 -11  -4-5.58356 14.6182  18
  -2  11   4 24.1748 14.4331  25
  -2  11   4 10.6378 14.0936  44
  -2  11   3 12.7775 14.7912  42
   2 -11  -3-2.82169 14.5070  18
  -2  11   3 15.7590 14.3138  41
   2 -11  -3 14.8641 17.9316  37
  -2  11   3 3.00015 15.4998  44
  -2  11   3 18.5259 14.8892  25
   2 -11  -2 505.087 47.0012  46
   2 -11  -2 578.646 57.8817  18
  -2  11   2 585.969 54.1169  42
  -2  11   2 519.514 45.2773  25
  -2  11   2 578.432 56.5466  44
  -2  11   2 487.536 49.7912  41
   2 -11  -2 534.487 51.0931  37
   2 -11  -1 7936.11 211.880  37
  -2  11   1 8021.31 222.469  44
  -2  11   1 7919.32 189.378  25
  -2  11   1 8429.91 222.169  42
   2 -11  -1 7473.01 206.968  46
   2 -11  -1 7894.11 222.321  18
  -2  11   1 8246.25 220.176  41
   2 -11  -1 7521.41 202.574  38
  -2  11   0 225.116 43.5219  42
   2 -11   0 203.938 35.9911  38
   2 -11   0 198.067 34.4406  37
  -2  11   0 212.767 29.5742  25
   2 -11   0 198.435 39.2101  18
  -2  11   0 204.041 32.0459  20
  -2  11   0 207.019 37.5464  41
   2 -11   0 194.476 36.4203  46
  -2  11   0 170.802 33.9484  44
   2 -11   1 4037.37 145.359  13
   2 -11   1 4195.64 160.093  38
   2 -11   1 4257.83 163.593  46
  -2  11  -1 4378.03 149.870  20
  -2  11  -1 4344.44 160.388  44
  -2  11  -1 4423.43 163.066  42
  -2  11  -1 4496.17 166.193  41
   2 -11   1 4228.44 154.862  37
   2 -11   1 4253.45 166.295  18
   2 -11   2 15760.1 354.811  18
   2 -11   2 15984.5 350.886  46
  -2  11  -2 15941.0 331.089  44
  -2  11  -2 16410.5 340.590  42
   2 -11   2 15654.2 329.806  37
   2 -11   2 15247.9 323.319  13
  -2  11  -2 16648.4 330.458  20
  -2  11  -2 16652.1 348.892  41
   2 -11   2 15677.1 347.430  38
  -2  11  -3 6994.20 201.256  20
   2 -11   3 6627.29 216.112  18
  -2  11  -3 7008.64 204.311  42
   2 -11   3 6616.71 201.925  13
   2 -11   3 6998.36 219.432  46
  -2  11  -3 7083.15 211.310  41
  -2  11  -3 6645.01 174.401  43
   2 -11   3 6576.58 198.423  37
   2 -11   3 6743.24 214.751  38
   2 -11   4 1828.35 110.274  18
   2 -11   4 1670.44 110.136  46
  -2  11  -4 1768.57 97.9633  20
   2 -11   4 1647.85 99.2740  13
  -2  11  -4 1828.93 90.0949  43
  -2  11  -4 1770.34 96.3033  42
  -2  11  -4 1761.45 100.116  41
   2 -11   4 1610.25 103.816  38
   2 -11   5 5898.60 203.587  18
  -2  11  -5 6442.17 191.462  20
  -2  11  -5 5996.37 175.843  42
  -2  11  -5 6202.43 189.055  41
   2 -11   5 5934.32 194.658  13
   2 -11   5 5919.07 201.973  38
  -2  11  -6 485.952 50.7711  20
  -2  11  -6 612.701 55.5282  41
   2 -11   6 633.157 65.6148  18
   2 -11   6 552.363 59.8438  13
   2 -11   6 553.045 60.7615  38
   2 -11   7 33.6377 18.9018  18
  -2  11  -7 56.3892 22.3272  20
   2 -11   7 51.9195 26.5345  13
  -2  11  -8 291.721 38.5702  20
   2 -11   8 281.619 44.9693  18
   2 -11   8 287.508 42.8218  13
   2 -11   9 10572.8 259.599  19
   2 -11   9 11023.5 273.476  18
  -2  11  -9 10012.1 227.102  20
   2 -11   9 10359.7 256.579  13
   2 -11  10 719.105 61.0941  13
   2 -11  10 674.208 60.3667  19
   2 -11  10 640.744 60.4344  18
   2 -11  11 672.214 54.9392  13
   2 -11  11 731.904 57.4882  19
   2 -11  12 954.962 63.5757  26
  -2  11 -12 894.343 51.6720  43
   2 -11  12 895.890 57.7862  19
   2 -11  13 2912.73 96.2364  19
  -2  11 -13 2820.58 81.2647  43
   2 -11  13 3094.26 105.213  26
   2 -11  14 556.564 36.7579  26
  -2  10   7 1210.26 52.8161  25
   2 -10  -7 1177.98 54.5082  37
  -2  10   7 1246.24 59.0357  27
  -2  10   6 3508.64 118.213  44
   2 -10  -6 3610.91 108.163  47
   2 -10  -6 3397.09 108.674  18
   2 -10  -6 3716.31 118.451  37
  -2  10   5 3271.37 115.314  25
   2 -10  -5 3146.74 120.327  37
  -2  10   5 2895.99 104.162  42
  -2  10   5 3245.45 125.128  44
   2 -10  -5 3054.27 116.812  18
  -2  10   4 322.117 39.7663  25
   2 -10  -4 340.843 43.0525  18
  -2  10   4 268.675 34.8241  41
  -2  10   4 393.953 48.8808  44
  -2  10   4 298.471 40.5742  42
   2 -10  -4 343.071 44.6781  37
   2 -10  -3 40.9461 25.8390  37
   2 -10  -3 43.2047 24.9861  18
  -2  10   3 13.6775 16.5551  41
  -2  10   3 25.7756 16.8265  25
  -2  10   3 30.2188 26.0241  44
  -2  10   3 64.8332 24.6749  42
  -2  10   2 1055.38 79.4777  41
   2 -10  -2 1045.26 80.5052  18
  -2  10   2 979.507 68.9602  25
  -2  10   2 977.117 75.9834  42
  -2  10   2 1008.37 80.8758  44
   2 -10  -2 943.882 72.5735  46
   2 -10  -2 1042.43 79.5777  37
   2 -10  -2 973.688 71.3005  38
   2 -10  -1 1225.32 86.1633  46
  -2  10   1 1111.34 82.5558  42
  -2  10   1 1214.82 89.4890  44
   2 -10  -1 1200.39 89.0423  18
  -2  10   1 1230.43 87.6299  41
   2 -10  -1 1187.24 80.1736  47
  -2  10   1 1205.09 75.9752  25
   2 -10  -1 1212.79 85.5219  37
   2 -10  -1 1192.70 83.0654  38
   2 -10   0 178.990 35.2830  38
   2 -10   0 216.444 38.0018  37
   2 -10   0 221.011 39.0239  46
  -2  10   0 270.613 37.3519  20
   2 -10   0 204.494 35.6002  47
   2 -10   0 182.463 32.8508  13
   2 -10   0 222.239 42.2148  18
  -2  10   0 221.361 38.3514  42
  -2  10   0 163.611 32.0059  41
  -2  10   0 208.493 32.5743  25
  -2  10  -1 547.749 52.6663  20
  -2  10  -1 560.054 59.4524  42
   2 -10   1 523.900 59.2982  18
  -2  10  -1 549.884 59.2569  41
  -2  10  -1 550.558 58.7764  44
   2 -10   1 494.096 54.7755  11
   2 -10   1 525.313 58.8917  46
   2 -10   1 561.739 60.0532  38
   2 -10   1 581.997 58.1629  13
   2 -10   1 563.007 58.1899  37
   2 -10   2 3003.98 138.784  11
  -2  10  -2 3163.08 135.862  44
   2 -10   2 3186.39 147.811  46
  -2  10  -2 3233.55 139.854  42
  -2  10  -2 3171.87 140.523  41
   2 -10   2 3099.75 143.019  38
   2 -10   2 2979.95 133.725  13
   2 -10   2 3209.88 147.774  18
   2 -10   2 3011.54 135.211  37
   2 -10   3 2735.19 133.687  11
  -2  10  -3 2942.25 132.046  41
   2 -10   3 2772.03 138.363  18
   2 -10   3 2710.51 128.080  37
  -2  10  -3 2853.28 128.131  42
   2 -10   3 2660.17 128.625  13
   2 -10   3 2845.42 142.045  46
   2 -10   3 2833.68 137.783  38
  -2  10  -4 15085.6 315.707  42
  -2  10  -4 14603.6 317.961  41
   2 -10   4 14149.5 333.518  11
   2 -10   4 15035.9 351.142  18
   2 -10   4 14356.3 343.821  38
   2 -10   4 14699.8 324.842  37
   2 -10   4 14789.1 331.806  13
   2 -10   4 14450.3 349.646  46
  -2  10  -5 141.536 32.9188  41
   2 -10   5 122.020 37.5834  38
   2 -10   5 108.786 35.6752  46
   2 -10   5 112.667 35.6701  11
   2 -10   5 119.830 35.0937  18
   2 -10   5 97.5010 32.5309  13
   2 -10   6 13948.0 339.439  18
  -2  10  -6 13466.5 288.656  41
   2 -10   6 14023.5 322.146  13
   2 -10   6 13896.9 334.455  38
   2 -10   7 347.243 51.1733  18
   2 -10   7 257.626 42.6383  13
   2 -10   7 326.827 51.9681  38
   2 -10   8 170.068 38.9414  18
   2 -10   8 146.863 33.7920  13
  -2  10  -8 120.857 29.8480  20
  -2  10  -9 28738.1 455.358  20
   2 -10   9 28830.9 501.229  19
   2 -10   9 28956.6 521.710  18
   2 -10   9 28034.2 495.489  13
   2 -10  10 7864.21 233.206  18
   2 -10  10 7752.69 223.525  19
   2 -10  10 7899.05 221.336  13
   2 -10  11 902.659 67.0422  12
   2 -10  11 856.052 60.6784  23
   2 -10  11 978.896 70.9210  19
   2 -10  11 877.264 66.4715  13
   2 -10  12-1.29095 15.7707  23
   2 -10  12 0.34407 17.2878  26
   2 -10  12 33.0617 17.4493  19
   2 -10  13 1251.31 65.1300  23
   2 -10  13 1221.89 67.5363  19
   2 -10  13 1239.24 74.1110  26
   2 -10  14 1303.30 61.3062  19
   2 -10  14 1337.11 67.1612  26
   2 -10  14 1412.12 61.4981  23
   2 -10  15 138.129 18.2429  26
  -2   9   8 3898.87 108.072  25
  -2   9   8 3623.02 108.266  44
  -2   9   8 3717.38 116.683  27
   2  -9  -8 3676.68 109.684  37
  -2   9   7 435.627 40.5187  49
   2  -9  -7 393.354 38.3948  18
  -2   9   7 396.612 39.7949  25
  -2   9   7 448.055 44.6320  44
  -2   9   6 5.77775 14.2541  49
  -2   9   6 31.1362 18.5218  44
   2  -9  -6 9.25369 15.4761  18
  -2   9   6 37.5169 18.2918  25
  -2   9   5 140.296 36.4070  44
  -2   9   5 133.376 27.6683  42
   2  -9  -5 105.295 27.5994  18
  -2   9   5 160.607 30.8666  25
  -2   9   5 137.389 28.6049  49
  -2   9   4 3786.06 149.300  42
  -2   9   4 4047.49 150.760  25
  -2   9   4 3679.42 144.536  41
  -2   9   4 3931.53 165.238  44
   2  -9  -4 3943.77 156.309  18
   2  -9  -3 2173.54 118.068  18
  -2   9   3 2339.68 127.666  44
  -2   9   3 2236.24 117.396  41
  -2   9   3 2113.99 114.046  42
  -2   9   3 2139.74 109.041  25
   2  -9  -3 2179.46 111.094  46
   2  -9  -2 128.882 28.4861  38
  -2   9   2 89.1321 29.5374  42
   2  -9  -2 76.4064 27.8849  46
  -2   9   2 103.257 33.7795  44
  -2   9   2 89.6235 28.7250  41
   2  -9  -2 139.069 35.2351  18
  -2   9   2 211.449 34.2931  25
  -2   9   1 3333.71 133.195  25
  -2   9   1 3290.53 145.626  41
  -2   9   1 3193.54 126.680  20
   2  -9  -1 3150.11 140.886  46
  -2   9   1 3244.88 144.132  42
   2  -9  -1 3227.33 146.583  18
  -2   9   1 3250.46 148.658  44
   2  -9  -1 3221.51 139.021  38
   2  -9   0 4237.61 166.936  11
   2  -9   0 4166.42 160.400  37
   2  -9   0 4112.32 166.249  18
  -2   9   0 4197.24 163.174  41
  -2   9   0 4213.56 145.764  25
  -2   9   0 4279.02 167.609  44
  -2   9   0 4222.49 163.902  42
   2  -9   0 4138.26 155.860  13
   2  -9   0 4185.22 164.951  46
   2  -9   0 3914.00 157.245  38
   2  -9   1-0.28351 19.6719  38
   2  -9   1-1.73068 21.5717  47
   2  -9   1 2.86818 23.3617  11
  -2   9  -1 16.5956 14.9687  44
   2  -9   1 9.63006 20.4228  18
  -2   9  -1 17.9282 18.2485  41
   2  -9   1 15.6143 18.8330  46
   2  -9   1-21.2442 22.2772  37
  -2   9  -1 15.4200 15.9898  42
   2  -9   2 2479.01 126.616  46
   2  -9   2 2671.81 129.242  11
   2  -9   2 2516.93 128.461  18
  -2   9  -2 2554.11 120.896  41
  -2   9  -2 2529.50 120.017  42
   2  -9   2 2483.57 120.971  13
   2  -9   2 2466.55 125.031  38
   2  -9   2 2466.41 120.360  37
   2  -9   3 2683.38 128.485  17
   2  -9   3 2528.76 126.541  11
  -2   9  -3 2653.93 121.890  41
   2  -9   3 2694.32 133.094  38
   2  -9   3 2575.35 130.298  18
   2  -9   3 2561.22 124.185  13
   2  -9   3 2586.74 130.254  46
  -2   9  -3 2555.19 117.873  42
   2  -9   3 2584.73 124.502  37
   2  -9   4 27027.5 482.090  13
   2  -9   4 27870.2 502.892  18
   2  -9   4 26351.9 500.342  46
   2  -9   4 27227.7 478.713  37
  -2   9  -4 26884.4 457.482  42
  -2   9  -4 26692.2 455.777  41
   2  -9   4 26852.7 484.853  11
   2  -9   4 27728.0 486.811  17
   2  -9   4 26292.9 497.146  38
   2  -9   5 2297.18 123.041  46
   2  -9   5 2189.26 117.887  11
   2  -9   5 2243.34 119.249  17
   2  -9   5 2156.10 120.619  38
  -2   9  -5 2337.81 108.478  41
   2  -9   5 2316.13 120.306  13
   2  -9   5 2309.36 124.798  18
   2  -9   6 14826.6 332.041  11
   2  -9   6 14967.7 350.620  18
   2  -9   6 14173.8 337.220  38
   2  -9   6 15037.3 334.187  13
   2  -9   7 78.2853 26.4262  18
   2  -9   7 165.747 36.8004  38
   2  -9   7 104.320 33.1771  13
   2  -9   8 5890.00 209.775  18
   2  -9   8 5601.71 190.733  13
  -2   9  -8 5555.74 169.675  20
   2  -9   9 6752.00 209.677  13
   2  -9   9 6903.82 213.936  19
   2  -9   9 6931.09 227.544  18
   2  -9  10 21095.3 405.114  19
   2  -9  10 20497.2 397.866  13
   2  -9  10 21656.2 434.872  18
   2  -9  11 5797.11 185.444  19
   2  -9  12 4744.06 160.407  19
   2  -9  12 5133.44 162.564  23
   2  -9  12 5088.58 175.189  26
   2  -9  13 231.618 34.4618  19
   2  -9  13 207.378 34.6903  26
   2  -9  13 226.612 32.9393  23
   2  -9  14 3087.79 105.065  19
   2  -9  14 2965.06 110.917  26
   2  -9  14 3073.33 108.087  23
   2  -9  15 598.268 41.4383  23
   2  -9  15 548.121 39.8371  26
  -2   8   9 134.948 24.4052  27
  -2   8   9 142.142 24.2575  49
  -2   8   9 109.766 20.6380  44
  -2   8   9 106.409 19.2011  25
  -2   8   8 1090.70 71.8511  44
   2  -8  -8 988.195 61.3487  18
  -2   8   8 1134.41 67.3209  25
  -2   8   8 1155.81 71.5879  49
   2  -8  -7 5087.16 161.537  18
  -2   8   7 5191.68 176.951  44
  -2   8   7 5469.21 169.258  25
  -2   8   7 5283.54 172.759  49
   2  -8  -6 2575.33 121.109  18
  -2   8   6 2596.78 132.812  44
  -2   8   6 2670.61 125.747  49
  -2   8   6 2815.46 126.038  25
  -2   8   5 3629.27 144.812  42
  -2   8   5 3708.44 148.391  25
  -2   8   5 3528.14 147.220  49
  -2   8   5 3769.50 165.469  44
   2  -8  -5 3458.07 146.975  18
  -2   8   4 1454.37 92.6927  25
  -2   8   4 1363.38 91.5535  41
  -2   8   4 1556.78 95.9440  49
   2  -8  -4 1317.26 90.4364  18
  -2   8   4 1502.49 105.835  44
  -2   8   4 1354.68 90.2439  42
  -2   8   3 12656.9 303.307  41
   2  -8  -3 12589.7 304.082  18
  -2   8   3 13056.2 307.212  42
  -2   8   3 13263.0 330.109  44
  -2   8   3 13023.5 294.484  25
   2  -8  -2 5566.93 189.663  18
  -2   8   2 5795.79 191.224  42
  -2   8   2 5668.63 178.607  25
   2  -8  -2 5286.36 181.707  46
  -2   8   2 6037.09 205.391  44
  -2   8   2 5703.54 191.093  41
  -2   8   1 5093.94 163.369  25
  -2   8   1 5187.41 177.285  41
   2  -8  -1 5018.18 178.265  18
  -2   8   1 5188.24 184.167  44
   2  -8  -1 4774.74 167.861  38
   2  -8  -1 4984.14 174.900  46
  -2   8   1 5055.80 175.987  42
   2  -8   0 11683.1 282.917  18
  -2   8   0 11375.1 693.731  31
   2  -8   0 11255.6 695.536  29
   2  -8   0 11835.3 284.096  46
  -2   8   0 11675.5 280.816  44
   2  -8   0 12035.7 748.550   1
  -2   8   0 12233.9 280.370  42
  -2   8   0 11989.6 277.759  41
  -2   8   0 11880.8 672.583   6
   2  -8   1 52683.7 1573.67  29
   2  -8   1 59005.0 1737.33   1
  -2   8  -1 55168.0 1559.13  31
  -2   8  -1 59059.3 1573.05   6
  -2   8  -2 10365.6 617.135   6
  -2   8  -2 9346.58 592.503  31
   2  -8   2 8678.01 601.883  29
   2  -8   2 10093.3 683.937   1
   2  -8   3 5034.45 485.852   1
  -2   8  -3 5393.99 437.310  31
  -2   8  -3 5009.40 425.882   6
  -2   8  -4 13565.1 707.016   6
  -2   8  -4 13088.6 577.066  28
   2  -8   4 13925.5 828.579   1
  -2   8  -4 13285.0 682.106  31
   2  -8   5 18429.0 985.871  10
   2  -8   5 16778.0 919.229   1
   2  -8   5 17614.8 942.636   5
  -2   8  -5 16108.7 671.300  28
  -2   8  -5 14459.6 709.112  31
  -2   8  -5 15785.2 767.012   6
   2  -8   6 22703.0 1082.36   5
  -2   8  -6 21652.7 902.144   6
  -2   8  -6 19734.4 823.350  31
   2  -8   6 23048.2 1083.42  10
  -2   8  -6 20617.4 799.289  28
   2  -8   6 20623.1 1049.87   1
  -2   8  -7 337.612 97.4120  32
   2  -8   7 306.543 45.7955  18
   2  -8   7 263.058 41.4464  38
   2  -8   7 348.237 145.995   5
   2  -8   7 243.623 40.2691  13
   2  -8   8 3934.34 165.751  18
   2  -8   8 3977.46 153.958  13
   2  -8   9 381.849 52.4345  18
   2  -8   9 306.343 42.4939  19
   2  -8   9 368.279 46.4165  13
   2  -8  10 6144.39 194.157  19
   2  -8  10 6472.81 216.146  18
   2  -8  10 6216.44 193.306  13
   2  -8  11 14607.7 314.792  19
   2  -8  12 1062.35 75.9230  19
   2  -8  12 1172.15 81.0716  23
   2  -8  12 1308.27 87.9812  26
   2  -8  13 247.027 34.9784  19
   2  -8  13 257.871 37.4076  26
   2  -8  13 274.268 41.3489  23
   2  -8  14 169.912 28.6324  19
   2  -8  14 176.592 30.2332  23
   2  -8  14 160.085 30.7855  26
   2  -8  15 138.779 23.4652  26
   2  -8  15 187.164 27.5991  23
   2  -8  16 1125.45 50.3779  26
   2  -8  16 1268.95 55.3560  23
  -2   7  10 23.2593 10.9735  44
  -2   7  10 17.2002 15.5584  49
  -2   7  10-6.04763 14.3644  25
  -2   7  10 11.6213 11.9645  27
   2  -7  -9 242.547 31.0902  18
  -2   7   9 270.174 37.9143  44
  -2   7   9 301.215 35.7862  25
  -2   7   9 266.189 38.5958  49
  -2   7   8 230.195 35.7929  25
   2  -7  -8 219.989 33.4588  18
  -2   7   8 250.292 39.4777  49
  -2   7   8 200.373 35.7095  44
  -2   7   7 1866.36 104.185  25
  -2   7   7 1765.81 107.371  49
  -2   7   7 1803.06 111.920  44
   2  -7  -7 1687.86 96.3825  18
  -2   7   6 22685.4 426.793  25
  -2   7   6 23111.5 446.935  49
  -2   7   6 22956.7 465.007  44
   2  -7  -6 22359.3 422.121  18
   2  -7  -5 6810.36 209.770  18
  -2   7   5 7085.27 211.690  25
  -2   7   5 7030.71 235.991  44
  -2   7   5 6726.86 205.755  42
  -2   7   5 7024.71 219.694  49
  -2   7   4 3981.41 157.717  49
  -2   7   4 4009.44 152.628  25
  -2   7   4 3995.25 157.296  41
  -2   7   4 4017.81 171.607  44
  -2   7   4 3965.13 155.127  42
  -2   7   4 3916.81 155.848  16
  -2   7   3 30217.8 509.473  49
   2  -7  -3 30562.5 513.175  18
  -2   7   3 31812.4 549.167  44
  -2   7   3 31323.3 518.960  42
  -2   7   3 31145.4 511.936  16
  -2   7   3 31709.1 523.368  41
  -2   7   3 31286.1 505.193  25
   2  -7  -2 2615.98 325.249   1
   2  -7  -2 2313.10 264.226  33
  -2   7   2 2699.36 324.006   4
   2  -7  -2 2670.66 312.979  29
  -2   7   2 2542.02 290.394   6
  -2   7   1 2332.02 274.703   6
   2  -7  -1 2173.40 294.185   1
   2  -7  -1 2340.27 250.718  33
  -2   7   1 1913.94 264.274   4
   2  -7  -1 2077.70 273.829  29
  -2   7   1 2009.12 273.738  31
   2  -7   0 15813.8 794.723   1
  -2   7   0 14838.3 691.847   6
  -2   7   0 15684.1 749.387  31
   2  -7   0 14648.2 622.146  33
   2  -7   0 14905.8 731.326  29
  -2   7  -1 447.921 117.138   6
   2  -7   1 621.473 144.355  29
  -2   7  -1 422.855 114.093  31
   2  -7   1 301.519 104.676   1
   2  -7   2 1636.28 235.681  29
  -2   7  -2 1689.06 227.421  31
   2  -7   2 1872.73 276.288   1
  -2   7  -2 1796.21 233.959   6
  -2   7  -3 8466.00 505.113  31
  -2   7  -3 8925.09 429.177  28
   2  -7   3 8458.24 585.636   1
  -2   7  -3 8508.57 512.301   6
  -2   7  -4 35904.7 1090.49  31
   2  -7   4 39644.2 1331.17   1
  -2   7  -4 39691.5 1017.82  28
  -2   7  -4 39074.3 1150.66   6
   2  -7   5 68518.2 1838.70   1
  -2   7  -5 62916.5 1460.70  31
  -2   7  -5 66104.7 1558.54   6
  -2   7  -5 62720.9 1317.07  32
  -2   7  -5 65219.0 1429.32  28
   2  -7   6 18386.9 922.589   1
   2  -7   6 19027.9 952.624   5
  -2   7  -6 16345.0 638.971  32
  -2   7  -6 15663.7 663.627  31
   2  -7   6 18843.6 909.892  10
  -2   7  -6 17553.0 701.071  28
  -2   7  -6 17056.9 744.595   6
   2  -7   7 16188.4 900.793   5
  -2   7  -7 14507.9 625.828  32
   2  -7   7 16220.9 846.203  10
  -2   7  -7 15206.5 673.592  28
   2  -7   7 15626.4 873.076   1
  -2   7  -7 14795.7 699.869   6
  -2   7  -8 124.229 62.6307  32
   2  -7   8 91.8350 61.5000   5
   2  -7   8 307.592 126.957  10
  -2   7  -8 211.314 73.7575  28
   2  -7   8 177.687 100.442   1
  -2   7  -8 112.972 65.8674   6
   2  -7   9 427.637 54.6119  18
   2  -7   9 398.109 48.7464  19
   2  -7   9 357.003 44.4376  13
   2  -7   9 413.512 52.0937  47
   2  -7  10 1091.55 77.9192  12
   2  -7  10 1090.89 77.8257  19
   2  -7  10 1132.24 84.9297  47
   2  -7  11 5183.71 185.907  47
   2  -7  11 4669.83 174.592  26
   2  -7  11 4617.14 166.241  19
   2  -7  12 5320.30 169.326  19
   2  -7  12 5529.22 192.037  47
   2  -7  12 5200.24 181.222  26
   2  -7  12 5207.03 181.055  23
   2  -7  13 238.071 39.3207  23
   2  -7  13 263.858 34.5918  19
   2  -7  13 262.323 39.3285  26
   2  -7  14 217.901 36.2460  26
   2  -7  14 193.344 29.4371  19
   2  -7  14 122.923 29.9459  23
   2  -7  15 4095.50 129.791  23
   2  -7  15 3857.26 124.257  26
   2  -7  16 891.340 50.8787  23
   2  -7  16 799.552 46.2355  26
  -2   6  11 264.500 33.5937  27
  -2   6  11 232.082 23.4843  24
  -2   6  11 288.168 34.9534  49
  -2   6  10 161.473 34.8945  49
  -2   6  10 168.075 24.7721  24
  -2   6  10 172.203 33.8459  27
  -2   6  10 165.836 30.7365  44
  -2   6  10 162.826 27.0280  25
  -2   6   9 1355.52 93.3066  49
  -2   6   9 1296.83 80.8738  25
  -2   6   9 1160.23 83.1336  44
  -2   6   9 1263.91 70.3743  24
  -2   6   8 13191.6 321.453  49
  -2   6   8 12794.4 293.855  25
   2  -6  -8 12695.5 284.052  18
  -2   6   8 12714.9 258.933  24
  -2   6   8 12599.6 318.768  44
  -2   6   7 11235.4 303.134  44
  -2   6   7 11119.5 276.354  25
   2  -6  -7 11067.0 266.788  18
  -2   6   7 11467.4 299.887  49
  -2   6   6 10393.1 278.765  49
  -2   6   6 9892.36 256.077  25
  -2   6   6 10059.8 267.609  16
   2  -6  -6 10149.0 253.426  18
  -2   6   6 10160.8 288.519  44
   2  -6  -5 54591.7 770.321  18
  -2   6   5 54122.0 786.802  16
  -2   6   5 55144.2 803.581  49
  -2   6   5 53847.7 767.955  42
   2  -6  -4 53247.0 1396.70  33
   2  -6  -4 53973.2 1444.47  29
  -2   6   4 54998.3 1551.97   4
  -2   6   4 52416.7 1619.45  35
   2  -6  -3 1346.83 201.272  29
  -2   6   3 1290.67 216.226   4
   2  -6  -3 1329.56 221.051   1
  -2   6   2 487.563 112.948   6
  -2   6   2 482.106 131.761  31
   2  -6  -2 487.094 121.076  29
   2  -6  -2 382.629 99.2764  33
  -2   6   2 316.005 98.9172   4
   2  -6  -2 367.512 112.327   1
  -2   6   1 12525.5 581.752   6
  -2   6   1 12200.4 605.734   4
   2  -6  -1 12942.9 616.269  29
  -2   6   1 11100.8 595.199  31
   2  -6  -1 12562.5 645.005   1
   2  -6  -1 12472.0 548.086  33
  -2   6   0 434.201 106.969   6
   2  -6   0 328.074 97.2351  29
   2  -6   0 349.937 86.5133  33
  -2   6   0 489.601 119.124  31
   2  -6   0 408.659 118.095   1
   2  -6   1 5710.37 407.561  29
  -2   6  -1 6071.53 387.614   6
  -2   6  -1 5559.35 383.593  31
   2  -6   1 5579.11 343.783  33
   2  -6   1 5886.81 435.177   1
   2  -6   2 6204.04 365.656  33
  -2   6  -2 5734.97 378.542  31
   2  -6   2 5945.09 421.017  29
  -2   6  -2 6512.67 326.464  28
  -2   6  -2 6064.40 390.206   6
   2  -6   2 6428.88 455.075   1
   2  -6   3 23270.9 905.706   1
  -2   6  -3 21589.7 752.545  31
  -2   6  -3 20441.4 588.731  32
   2  -6   3 21616.4 724.274  33
  -2   6  -3 22519.0 675.896  28
  -2   6  -3 22458.2 775.279   6
  -2   6  -4 2065.21 187.194  32
  -2   6  -4 2191.70 225.710  31
   2  -6   4 2207.51 275.508   1
  -2   6  -4 2262.28 213.732  28
   2  -6   4 1906.33 212.056  33
  -2   6  -4 2047.01 226.349   6
  -2   6  -5 18586.3 659.940  28
  -2   6  -5 18048.1 610.338  32
  -2   6  -5 17386.9 647.196  31
  -2   6  -5 18681.2 716.796   6
   2  -6   5 19191.4 852.086   1
   2  -6   6 8821.98 594.869   1
   2  -6   6 10638.2 669.718   5
   2  -6   6 9435.89 580.593  10
  -2   6  -6 9160.17 473.850  28
  -2   6  -6 9067.09 500.635   6
  -2   6  -6 8814.94 439.521  32
  -2   6  -6 8450.34 430.819  31
  -2   6  -7 1145.96 165.302  32
   2  -6   7 1356.76 221.956  10
  -2   6  -7 1315.99 185.573  28
   2  -6   7 1297.99 246.436   5
   2  -6   7 1465.67 249.212   1
  -2   6  -7 1205.42 183.190   6
  -2   6  -8 4409.45 340.735  32
   2  -6   8 4167.43 395.618  10
  -2   6  -8 4239.47 347.629  28
   2  -6   8 4707.99 488.551   5
   2  -6   8 4418.81 451.754   1
  -2   6  -8 4304.25 349.878   6
  -2   6  -9 5202.82 394.624  28
  -2   6  -9 5224.90 386.622  32
   2  -6   9 5949.08 564.352   5
   2  -6   9 5450.65 521.204   1
   2  -6  10 2791.59 124.210  19
   2  -6  10 2919.43 126.832  12
   2  -6  11 1507.74 88.2461  19
   2  -6  11 1502.94 96.9055  26
   2  -6  11 1762.86 107.999  47
   2  -6  12 6230.63 201.270  26
   2  -6  12 6008.03 179.932  19
   2  -6  12 6236.68 196.993  23
   2  -6  13 7565.03 197.392  19
   2  -6  13 7735.59 219.366  23
   2  -6  13 7915.09 221.608  26
   2  -6  14 1256.52 79.3559  23
   2  -6  14 1200.05 77.8028  26
   2  -6  15 653.029 52.4233  26
   2  -6  15 708.041 53.5486  23
   2  -6  16 111.295 19.6786  23
   2  -6  16 77.9238 17.1681  26
  -2   5  12 201.760 23.1275  24
  -2   5  12 245.649 31.7865  27
  -2   5  11 650.185 49.0458  24
  -2   5  11 709.148 63.3266  49
  -2   5  11 638.139 61.7448  27
  -2   5  10 10442.1 275.197  49
  -2   5  10 9820.47 232.282  25
  -2   5  10 10130.8 229.126  24
  -2   5   9 12928.7 317.973  44
  -2   5   9 13429.6 281.387  24
  -2   5   9 12922.1 292.313  25
  -2   5   9 13736.1 332.391  49
  -2   5   8 1250.66 78.3705  24
  -2   5   8 1223.07 95.1698  44
  -2   5   8 1236.75 84.4055  25
  -2   5   8 1296.04 97.3560  49
  -2   5   7 3008.28 146.866  49
  -2   5   7 2980.34 145.210  44
  -2   5   7 2950.63 117.775  24
  -2   5   7 3078.24 132.000  25
  -2   5   7 2739.00 132.826  16
  -2   5   6 3436.73 402.491  35
  -2   5   6 3460.06 369.235   4
  -2   5   6 3390.38 143.173  16
  -2   5   6 3278.02 119.890  24
  -2   5   6 3418.50 149.720  49
   2  -5  -6 3245.47 307.440   3
  -2   5   6 3549.73 155.026  44
   2  -5  -5 1135.10 185.126  33
   2  -5  -5 993.119 155.109   3
  -2   5   5 1252.21 222.534   4
  -2   5   5 1097.79 221.127  35
   2  -5  -5 1065.95 178.029  29
  -2   5   4 6322.43 493.639  35
   2  -5  -4 6190.18 373.767   3
   2  -5  -4 6084.38 398.824  29
  -2   5   4 5634.85 432.796   4
   2  -5  -4 5522.98 391.088  33
  -2   5   3 69137.3 1422.59   6
   2  -5  -3 71273.8 1567.63   1
   2  -5  -3 68632.9 1455.52  33
   2  -5  -3 70087.0 1348.08   3
  -2   5   3 69659.1 1590.50   4
   2  -5  -3 66931.2 1442.55  29
  -2   5   3 67909.7 1559.90   8
   2  -5  -2 17583.0 567.320   3
  -2   5   2 17021.4 706.073  31
   2  -5  -2 17623.9 637.350  33
  -2   5   2 16477.7 677.659   4
   2  -5  -2 16437.8 633.577  29
   2  -5  -2 17139.1 692.014   1
  -2   5   2 16166.8 659.625   8
  -2   5   2 16751.2 622.449   6
   2  -5  -1 7372.48 440.915   1
   2  -5  -1 6930.67 372.282  33
  -2   5   1 7328.95 432.253  31
  -2   5   1 7465.02 421.290   4
   2  -5  -1 7174.53 403.182  29
   2  -5  -1 6976.51 332.838   3
  -2   5   1 7124.27 389.072   6
  -2   5   0 125777. 2039.98   6
   2  -5   0 122935. 1872.19   3
   2  -5   0 127907. 1988.76  33
  -2   5   0 129255. 2124.62  31
   2  -5   0 124183. 2115.47  29
   2  -5   0 130683. 2229.41   1
  -2   5  -1 28909.3 833.269  31
   2  -5   1 30674.4 800.561  33
  -2   5  -1 30720.0 835.981   6
   2  -5   1 30596.1 766.731   3
   2  -5   1 31856.2 953.097   1
  -2   5  -1 29064.4 669.822  28
   2  -5   1 30369.5 892.367  29
  -2   5  -2 4498.19 253.229  28
  -2   5  -2 4204.40 216.912  32
  -2   5  -2 3893.75 275.726  31
   2  -5   2 3717.90 302.784  29
   2  -5   2 4326.69 339.849   1
   2  -5   2 4445.13 303.897   3
   2  -5   2 4090.72 277.602  33
  -2   5  -2 4334.43 294.675   6
  -2   5  -3 9205.76 357.041  32
  -2   5  -3 9415.19 428.986  31
   2  -5   3 8873.86 429.541  33
  -2   5  -3 10800.4 425.104  28
  -2   5  -3 9996.37 456.080   6
   2  -5   3 10643.8 534.255   3
   2  -5   3 9962.15 531.820   1
  -2   5  -4 16601.4 524.034  32
   2  -5   4 17544.7 739.809   1
  -2   5  -4 15916.3 561.090  31
  -2   5  -4 16822.9 566.233  28
   2  -5   4 18913.9 743.339   3
  -2   5  -4 17016.3 617.536   6
   2  -5   4 20458.1 741.559   7
   2  -5   4 15477.4 603.334  33
  -2   5  -5 135.625 57.8019   6
  -2   5  -5 126.876 47.7156  32
  -2   5  -5 404.460 85.0226  31
   2  -5   5 247.796 87.3655  10
  -2   5  -5 292.149 76.5322  28
   2  -5   5 124.336 69.7719   1
   2  -5   6 12349.6 599.559  10
  -2   5  -6 11931.6 495.673  32
  -2   5  -6 12686.8 528.210  28
   2  -5   6 12889.8 694.922   5
   2  -5   6 11720.8 643.426   1
  -2   5  -6 12611.6 553.525   6
  -2   5  -7 2731.91 245.636  32
   2  -5   7 2649.03 279.193  10
   2  -5   7 3061.39 340.584   1
  -2   5  -7 2700.55 254.206  28
   2  -5   7 2665.96 330.149   5
   2  -5   8 40451.8 1398.59   5
   2  -5   8 41005.2 1369.60   1
  -2   5  -8 40491.6 1066.80  32
  -2   5  -8 42125.4 1095.21  28
  -2   5  -8 38529.9 1075.76   6
   2  -5   9 19594.1 1002.14   5
  -2   5  -9 19721.2 749.593  28
  -2   5  -9 20278.6 762.278  32
   2  -5   9 20337.4 986.042   1
   2  -5  10 29196.3 1220.74   1
   2  -5  10 26427.3 470.605  26
   2  -5  10 26905.6 480.792  37
   2  -5  10 28240.6 497.735  47
   2  -5  11 19867.3 392.801  26
   2  -5  11 19179.4 379.848  23
   2  -5  12 18512.1 375.680  26
   2  -5  12 18031.6 372.891  23
   2  -5  13 309.940 45.7443  23
   2  -5  13 364.028 49.7807  26
   2  -5  14 6834.64 191.569  26
   2  -5  14 6592.25 192.501  23
   2  -5  15 287.743 35.0069  23
   2  -5  15 321.199 36.8996  26
   2  -5  16 1298.73 60.6547  23
   2  -5  16 1222.30 58.8980  26
  -2   4  13 967.967 51.4385  24
  -2   4  12 103.618 28.6028  49
  -2   4  12 115.280 22.6759  24
  -2   4  12 137.747 29.6178  27
  -2   4  11 41.6212 24.2428  27
  -2   4  11 67.8019 23.6930  24
  -2   4  11 12.9871 21.1655  49
  -2   4  10 2394.20 121.804  44
  -2   4  10 2509.31 115.210  24
  -2   4   9 35437.7 567.748  25
  -2   4   9 34466.3 598.918  44
  -2   4   9 35778.9 563.077  24
  -2   4   9 36194.3 626.462  49
  -2   4   8 1228.30 80.6093  25
  -2   4   8 1140.92 89.0951  49
  -2   4   8 1383.93 74.3760  23
  -2   4   8 1252.65 91.7990  44
  -2   4   8 1156.82 75.7642  24
  -2   4   7 5998.35 514.660  35
   2  -4  -7 6337.21 476.477  33
  -2   4   7 6577.61 183.238  24
   2  -4  -7 6858.78 453.015  29
   2  -4  -7 6230.59 442.945   3
  -2   4   7 6829.13 167.960  23
  -2   4   7 6796.03 203.740  16
  -2   4   7 6611.34 214.173  49
  -2   4   7 6848.12 215.210  44
  -2   4   6 4879.34 434.847   8
   2  -4  -6 5500.11 389.127   3
  -2   4   6 5139.85 456.546  35
   2  -4  -6 6128.90 439.089  33
  -2   4   6 6389.18 467.857   4
   2  -4  -6 5913.41 396.093  29
  -2   4   5 14942.8 713.314   8
  -2   4   5 15176.5 754.604  35
   2  -4  -5 16589.0 638.593   3
   2  -4  -5 15619.9 669.651  33
  -2   4   5 16483.4 720.041   4
   2  -4  -5 15988.0 624.335  29
  -2   4   4 27456.0 932.654   8
  -2   4   4 30225.0 1014.86  35
   2  -4  -4 28961.2 807.311   3
   2  -4  -4 25494.8 747.834  30
  -2   4   4 29344.6 921.717   4
   2  -4  -4 27329.0 790.141  29
   2  -4  -4 27919.3 852.458  33
  -2   4   3 51.7621 30.5024   8
  -2   4   3 154.657 59.6414   6
   2  -4  -3 76.8248 35.6432   3
   2  -4  -3 112.019 49.1543  29
   2  -4  -3 63.8089 43.7088   1
   2  -4  -3 20.1183 27.7364  33
   2  -4  -2 82149.1 1461.38  33
  -2   4   2 78525.4 1560.36  31
  -2   4   2 82108.5 1546.68   4
   2  -4  -2 78438.9 1427.90  29
  -2   4   2 85616.4 1438.60   6
   2  -4  -2 77839.6 1345.77   3
   2  -4  -2 81393.0 1529.28   1
   2  -4  -1 217584. 2746.00   3
  -2   4   1 222552. 2869.47   6
   2  -4  -1 220477. 2902.67  29
  -2   4   1 204041. 2499.64  28
  -2   4   1 221059. 3008.10  31
   2  -4  -1 214271. 2994.90   1
  -2   4   1 207733. 2930.69   4
   2  -4  -1 208273. 2837.12  33
  -2   4   0 13933.9 510.868  31
  -2   4   0 13951.8 489.584   6
  -2   4   0 13749.5 375.932  28
   2  -4   0 13869.2 443.791   3
   2  -4   0 14315.7 555.803   1
   2  -4   0 13124.2 469.843  33
   2  -4   0 12836.2 492.599  29
   2  -4   1 8022.26 346.027   3
   2  -4   1 7742.57 385.951  29
   2  -4   1 7660.07 350.509  33
  -2   4  -1 7902.33 249.405  32
  -2   4  -1 7655.30 359.089  31
  -2   4  -1 8208.51 305.530  28
  -2   4  -1 7987.44 362.519   6
   2  -4   1 8247.89 417.799   1
   2  -4   2 17571.9 594.202   3
  -2   4  -2 14949.2 495.330  31
   2  -4   2 14612.2 555.674  29
  -2   4  -2 16232.0 470.134  28
   2  -4   2 16686.6 545.454  33
  -2   4  -2 15960.8 417.417  32
   2  -4   2 16113.4 606.074   1
  -2   4  -2 16772.2 543.596   6
   2  -4   3 18366.1 700.075   3
   2  -4   3 16886.5 577.348  33
  -2   4  -3 17082.5 473.633  32
  -2   4  -3 17435.7 526.297  31
   2  -4   3 16639.1 636.433   1
  -2   4  -3 17390.9 518.924  28
  -2   4  -3 17562.4 569.086   6
   2  -4   4 13997.1 551.982  33
  -2   4  -4 14943.6 472.282  32
  -2   4  -4 13665.1 448.436  31
  -2   4  -4 15934.1 518.720  28
   2  -4   4 13700.4 599.298   1
   2  -4   4 16236.7 677.749   3
  -2   4  -4 15027.6 535.484   6
  -2   4  -5 2482.80 199.121  32
  -2   4  -5 2445.67 176.824  31
   2  -4   5 2683.71 242.017  10
  -2   4  -5 2844.56 221.613  28
   2  -4   5 2721.86 287.079   5
   2  -4   5 2849.38 272.262   7
  -2   4  -5 2712.33 230.532   6
   2  -4   5 2609.85 270.027   1
  -2   4  -6 62320.5 1231.03  32
   2  -4   6 65869.9 1583.37   5
  -2   4  -6 65910.3 1276.77  28
   2  -4   6 63844.1 1346.19  10
   2  -4   6 61066.1 1510.19   1
   2  -4   6 62662.8 1441.69   7
  -2   4  -6 62137.3 1291.04   6
   2  -4   7 1510.98 231.383   1
  -2   4  -7 1210.70 158.090  32
   2  -4   7 997.539 153.464  10
   2  -4   7 1061.11 196.074   5
  -2   4  -7 1244.67 159.759  28
   2  -4   7 1249.34 196.845   7
  -2   4  -7 1408.59 177.190   6
  -2   4  -8 124530. 2103.08   6
  -2   4  -8 124979. 2083.81  32
   2  -4   8 116420. 2517.66   5
  -2   4  -8 123389. 2071.38  28
   2  -4   8 121130. 2398.14   7
   2  -4   8 122805. 2514.73   1
  -2   4  -9 20375.2 739.206  32
  -2   4  -9 20060.5 718.144  28
   2  -4   9 19457.6 942.855   1
   2  -4   9 20189.1 919.057   7
   2  -4   9 18486.8 939.870   5
   2  -4  10 47292.8 701.943  26
  -2   4 -10 48444.6 1205.96  28
   2  -4  10 50343.7 740.984  47
   2  -4  11 1402.68 96.2663  47
   2  -4  11 1256.91 84.3727  23
   2  -4  11 1307.29 87.8029  26
   2  -4  12 1043.51 77.9168  26
   2  -4  12 1123.78 79.1247  23
   2  -4  13 1882.30 103.308  26
   2  -4  13 1824.65 101.682  23
   2  -4  14 1468.00 84.7638  26
   2  -4  14 1405.71 81.4385  23
   2  -4  14 1365.56 79.7517  24
   2  -4  15 113.575 22.9009  23
   2  -4  15 127.832 23.2487  26
   2  -4  16 90.2665 17.0950  23
   2  -4  16 76.4479 15.0697  26
  -2   3  14 28.3284 11.6266  24
  -2   3  13 177.685 29.7863  27
  -2   3  13 204.261 28.9074  24
  -2   3  12 792.507 62.4898  24
  -2   3  12 721.611 66.5738  49
  -2   3  12 732.647 65.7325  27
  -2   3  11 189.879 33.1897  23
  -2   3  11 185.100 38.3497  49
  -2   3  11 191.408 36.5027  24
  -2   3  11 157.728 36.9689  27
  -2   3  10 10852.5 265.734  24
  -2   3  10 11077.9 300.595  49
  -2   3   9 165.444 38.6444  49
  -2   3   9 193.367 38.4159  44
  -2   3   9 182.395 30.9595  23
  -2   3   9 144.685 26.7488  24
  -2   3   8 6054.48 179.300  24
  -2   3   8 5166.64 490.801   8
  -2   3   8 6128.11 162.515  23
   2  -3  -8 5697.04 442.763   3
  -2   3   8 6171.53 201.993  49
  -2   3   8 5896.06 193.742  44
   2  -3  -7 8771.16 468.707  29
   2  -3  -7 8700.50 539.115  33
  -2   3   7 8015.56 565.718  35
   2  -3  -7 7947.44 487.465   3
  -2   3   7 8403.66 589.131   8
  -2   3   6 372.532 110.487   9
   2  -3  -6 49.9623 37.3142  33
   2  -3  -6 156.612 67.3920   3
   2  -3  -6 124.644 51.5975  29
  -2   3   6 202.818 88.4112   8
  -2   3   6 252.192 88.9641   4
  -2   3   6 139.674 55.3770  35
  -2   3   5 97802.0 1829.49   4
   2  -3  -5 95865.7 1725.30   3
   2  -3  -5 96157.8 1789.11  33
  -2   3   5 99199.8 1862.67   9
  -2   3   5 99075.9 1985.35  35
   2  -3  -5 95119.1 1636.56  29
  -2   3   5 94139.0 1934.55   8
   2  -3  -4 111731. 1725.47  29
  -2   3   4 113868. 2055.73  35
  -2   3   4 108220. 1841.05   9
   2  -3  -4 112359. 1797.77   3
   2  -3  -4 114071. 1874.91  33
   2  -3  -4 106481. 1650.83  30
  -2   3   4 110504. 1892.97   4
  -2   3   4 108197. 2005.41   8
   2  -3  -3 10769.3 414.863   3
   2  -3  -3 10993.7 448.508  33
   2  -3  -3 10440.3 377.706  30
  -2   3   3 10997.8 466.690   4
   2  -3  -3 11222.2 405.404  29
  -2   3   3 10475.5 402.790   9
  -2   3   3 11296.3 387.864   6
   2  -3  -3 11284.5 438.848   1
  -2   3   3 11266.5 502.690   8
   2  -3  -2 35474.8 760.317   3
  -2   3   2 36717.2 842.358   4
   2  -3  -2 35490.1 755.156  29
  -2   3   2 36085.1 745.636   6
  -2   3   2 34944.1 680.426   9
  -2   3   2 32682.9 567.315  28
   2  -3  -2 35022.5 806.411  33
   2  -3  -2 35311.9 809.870   1
  -2   3   1 351685. 3870.76  28
   2  -3  -1 350616. 4156.52  33
  -2   3   1 343446. 4228.33  31
   2  -3  -1 339505. 4102.07  29
  -2   3   1 340405. 3789.15   9
  -2   3   1 334636. 4077.31   6
  -2   3   1 361682. 4221.22   4
   2  -3  -1 344409. 4049.94   3
   2  -3  -1 354527. 4216.35   1
   2  -3   0 21.2818 28.0497  33
  -2   3   0 19.3626 25.5560  31
   2  -3   0 86.0700 35.8661   3
   2  -3   0 80.0164 28.6305  29
  -2   3   0 92.5783 29.8751  28
  -2   3   0 42.9038 25.7294   6
   2  -3   1 81.1097 45.1099   1
  -2   3  -1 107.715 26.6715  32
  -2   3  -1 99.0442 39.7389  31
   2  -3   1 143.783 48.1059   3
   2  -3   1 86.1176 38.3514  29
  -2   3  -1 176.751 42.1299  28
  -2   3  -1 114.683 44.8499   6
   2  -3   1 103.319 40.3532  33
  -2   3  -2 6671.51 303.840   6
   2  -3   2 6653.42 346.488   1
  -2   3  -2 6346.66 260.997  28
   2  -3   2 6488.17 315.593  33
  -2   3  -2 6364.95 235.577  32
  -2   3  -2 6365.03 272.448  31
   2  -3   2 6795.21 354.523   3
  -2   3  -3 239.663 58.4388   6
  -2   3  -3 254.867 53.8342  32
   2  -3   3 287.792 88.9435   3
  -2   3  -3 237.424 50.6035  31
  -2   3  -3 233.173 55.0967  28
   2  -3   3 174.377 58.4650  33
   2  -3   3 268.520 75.8203   1
  -2   3  -4 76670.9 1172.16  31
   2  -3   4 78125.3 1275.17   9
  -2   3  -4 83365.3 1324.20  28
  -2   3  -4 78445.7 1267.04  32
   2  -3   4 81064.5 1659.36   3
  -2   3  -4 82506.1 1384.98   6
   2  -3   4 76371.8 1514.97   1
  -2   3  -5 534.658 87.5541  32
   2  -3   5 728.059 141.827   1
  -2   3  -5 461.153 92.7206   6
   2  -3   5 383.275 101.751   5
   2  -3   5 409.186 83.6234  10
   2  -3   5 557.786 99.2994   9
  -2   3  -5 421.274 78.5731  28
   2  -3   5 387.589 105.353   7
   2  -3   6 25748.1 903.474   5
  -2   3  -6 26520.3 709.847  32
   2  -3   6 27112.2 734.680  10
   2  -3   6 24765.2 774.468   9
  -2   3  -6 26404.5 706.159  28
   2  -3   6 26192.1 900.894   7
   2  -3   6 26506.6 897.511   1
  -2   3  -6 26723.9 754.869   6
   2  -3   7 45516.4 1289.98   1
   2  -3   7 43147.4 1280.09   5
   2  -3   7 44479.8 1187.30   9
   2  -3   7 42845.8 1098.53   4
  -2   3  -7 46575.3 1029.41  28
  -2   3  -7 45554.6 1028.29  32
   2  -3   7 44599.5 1280.20   7
  -2   3  -7 44736.9 1058.27   6
  -2   3  -8 19299.1 663.814  32
   2  -3   8 20342.1 848.576   9
  -2   3  -8 19810.6 651.879  28
   2  -3   8 18744.6 856.354   7
   2  -3   8 20163.8 884.985   1
   2  -3   8 18636.8 866.459   5
  -2   3  -8 20020.9 686.136   6
   2  -3   9 31585.4 1215.29   7
   2  -3   9 29789.7 1184.87   5
  -2   3  -9 32501.0 921.787  32
   2  -3   9 31660.3 1176.18   9
  -2   3  -9 31264.9 970.304  30
  -2   3  -9 31495.1 869.940  28
   2  -3  10 1880.46 306.150   5
  -2   3 -10 1634.49 205.695  32
   2  -3  10 1794.93 293.915   9
   2  -3  10 1631.47 91.2391  26
   2  -3  10 1599.53 89.1776  23
   2  -3  10 1765.45 292.570   7
   2  -3  10 1724.96 104.348  47
   2  -3  11 4047.34 153.864  23
   2  -3  11 4376.95 160.034  26
   2  -3  12 119.946 30.0373  26
   2  -3  12 197.066 35.3535  23
   2  -3  12 174.005 38.0357  40
   2  -3  13 1659.32 94.4731  23
   2  -3  13 1801.93 99.0206  26
   2  -3  14-22.5598 23.3285  24
   2  -3  14-2.07694 21.2105  26
   2  -3  14-26.2002 24.4327  23
   2  -3  15 150.345 25.0677  24
   2  -3  15 155.176 25.5814  26
   2  -3  15 181.127 26.6875  23
   2  -3  16-0.07965 9.11607  24
   2  -3  16-8.83818 12.5341  26
   2  -3  16-3.96422 8.20511  23
  -2   2  15 36.5392 11.1840  24
  -2   2  14 110.397 21.2953  24
  -2   2  13 381.010 38.4206  23
  -2   2  13 461.433 47.7840  24
  -2   2  12 1026.83 80.6760  27
  -2   2  12 1057.80 83.7061  49
  -2   2  12 1110.11 78.3411  24
  -2   2  12 1201.56 71.3334  23
  -2   2  11 21107.8 435.939  27
  -2   2  11 21463.8 441.922  49
  -2   2  11 21703.3 408.002  24
  -2   2  10 574.822 63.3851  27
  -2   2  10 647.741 59.3748  24
  -2   2  10 617.605 66.0164  49
  -2   2  10 580.297 50.7920  23
  -2   2   9 5778.29 177.358  24
  -2   2   9 5542.44 158.085  23
  -2   2   9 5358.44 189.166  49
  -2   2   8 7862.60 573.394   9
   2  -2  -8 8262.68 562.018  33
  -2   2   8 7434.00 582.007   8
   2  -2  -8 7730.18 512.980   3
   2  -2  -8 8249.97 447.381  29
  -2   2   8 8315.97 589.083   7
  -2   2   8 7322.16 533.848  35
   2  -2  -7 1024.79 145.217  29
  -2   2   7 1091.32 197.748   7
  -2   2   7 848.028 170.300  35
   2  -2  -7 1026.67 179.417  33
  -2   2   7 746.316 158.907   9
  -2   2   7 1092.18 200.404   8
   2  -2  -6 51940.1 1231.88  33
  -2   2   6 50051.5 1147.07   4
  -2   2   6 45436.0 1238.22   9
   2  -2  -6 51951.6 1068.55  29
  -2   2   6 51711.9 1306.19   7
  -2   2   6 45128.7 1297.29   8
  -2   2   6 48067.9 1301.78  35
  -2   2   5 874.346 145.817   7
  -2   2   5 686.075 134.004  35
   2  -2  -5 825.327 130.062  33
  -2   2   5 771.198 123.165   4
   2  -2  -5 854.266 111.056  29
  -2   2   5 661.416 122.593   9
  -2   2   4 57220.1 1278.23   8
   2  -2  -4 58051.4 1119.64   3
   2  -2  -4 60438.2 1173.11  33
  -2   2   4 58948.0 1285.94  35
   2  -2  -4 57909.6 949.136  30
  -2   2   4 59410.6 1159.07   9
   2  -2  -4 56965.5 1015.86  29
  -2   2   4 59483.6 1145.69   4
  -2   2   3 1779.40 182.331  35
   2  -2  -3 1369.61 139.821  33
   2  -2  -3 1158.36 99.9146  30
  -2   2   3 1828.13 161.070   4
  -2   2   3 1212.00 122.498   9
   2  -2  -3 1314.23 116.064  29
   2  -2  -3 1512.88 127.344   1
  -2   2   3 1376.21 160.347   8
  -2   2   3 1220.41 100.944   6
   2  -2  -3 1226.26 127.819   3
   2  -2  -2 53342.6 929.147   3
   2  -2  -2 54826.5 974.289  33
   2  -2  -2 52345.2 869.399  29
   2  -2  -2 53364.3 899.590   1
  -2   2   2 50401.3 820.216   9
  -2   2   2 52716.5 852.248   6
   2  -2  -1 101096. 1382.74   3
   2  -2  -1 101590. 1357.93  29
  -2   2   1 97161.2 1252.87  28
   2  -2  -1 103188. 1408.16   1
  -2   2   1 97509.3 1344.58   6
  -2   2   0 5893.28 165.269  32
  -2   2   0 6383.54 221.068  28
   2  -2   0 6340.91 272.102   1
  -2   2   0 5945.50 246.810   6
   2  -2   0 5674.86 249.133   3
   2  -2   1 83884.8 1303.70   1
  -2   2  -1 79910.0 1195.22  31
   2  -2   1 74763.4 1203.43  29
  -2   2  -1 80764.5 1128.70  28
   2  -2   1 81830.2 1301.22   3
  -2   2  -1 79652.6 1052.77  32
  -2   2  -1 76515.5 1202.57   6
  -2   2  -2 48740.4 782.381  32
  -2   2  -2 50101.5 819.996  31
   2  -2   2 49397.1 728.116   9
   2  -2   2 48712.5 962.694  33
   2  -2   2 51400.8 1093.14   3
   2  -2   2 50148.1 994.145   1
  -2   2  -3 18697.5 514.929   6
  -2   2  -3 18611.1 453.122  32
  -2   2  -3 18820.8 411.325  31
   2  -2   3 17606.0 456.075   9
  -2   2  -3 18807.3 475.473  28
   2  -2   3 17911.6 571.305  33
   2  -2   3 18795.6 593.095   1
   2  -2   3 18720.2 677.830   3
   2  -2   4 119403. 1974.45   5
   2  -2   4 116352. 1628.31  10
   2  -2   4 112438. 1743.83   9
  -2   2  -4 118810. 1668.28  28
   2  -2   4 114148. 1914.59   1
  -2   2  -4 117139. 1752.38   6
  -2   2  -4 119533. 1666.07  32
  -2   2  -5 148786. 2126.20   6
   2  -2   5 147353. 2435.10   7
   2  -2   5 138292. 2315.94   5
  -2   2  -5 145634. 2025.91  32
   2  -2   5 144173. 1973.64  10
   2  -2   5 146246. 2244.85   9
  -2   2  -5 147464. 2028.67  28
   2  -2   5 148092. 2363.16   1
   2  -2   6 45261.1 1195.28   5
   2  -2   6 46647.8 1175.28   9
  -2   2  -6 46029.4 938.319  28
  -2   2  -6 46113.8 1015.63   6
  -2   2  -6 45884.7 954.395  32
   2  -2   6 44834.6 1214.05   7
   2  -2   6 44238.2 1177.09   1
   2  -2   6 44824.6 1096.80   4
  -2   2  -7 107.903 46.2756  32
   2  -2   7 38.5578 47.9321   5
  -2   2  -7 35.4404 40.8649  30
   2  -2   7-8.22656 72.2129   9
  -2   2  -7 82.1400 43.6739  28
  -2   2  -7 25.3080 39.1639   6
   2  -2   7 54.6485 46.8277   4
   2  -2   7 116.287 83.5304   7
  -2   2  -8 13577.9 501.081  28
   2  -2   8 12927.0 708.780   5
  -2   2  -8 14286.0 548.786  32
  -2   2  -8 14692.3 601.334  30
   2  -2   8 13635.1 727.753   9
   2  -2   8 13968.8 750.546   7
  -2   2  -8 14113.1 567.823   6
  -2   2  -9 375.400 98.2275  32
   2  -2   9 346.714 120.556   5
   2  -2   9 285.767 122.472   9
  -2   2  -9 372.592 91.4849  30
   2  -2   9 318.437 131.934   7
   2  -2  10 11244.4 261.791  26
   2  -2  10 12437.0 815.050   9
  -2   2 -10 11905.9 548.445  32
   2  -2  10 11699.6 790.606   7
   2  -2  10 10617.8 249.375  23
   2  -2  10 12130.2 291.458  40
   2  -2  10 11839.8 286.830  21
   2  -2  11 157.800 33.7804  26
   2  -2  11 200.244 39.5668  40
   2  -2  11 183.623 36.7061  21
   2  -2  11 136.329 31.0642  23
   2  -2  12 2483.12 118.487  26
   2  -2  12 2285.54 111.763  23
   2  -2  12 2667.75 135.718  40
   2  -2  13-2.47011 24.8514  24
   2  -2  13 18.5619 18.5120  23
   2  -2  13-2.44755 18.6714  26
   2  -2  14 17.2970 17.1542  26
   2  -2  14 10.3132 18.8112  24
   2  -2  14 19.5456 14.3969  23
   2  -2  15 37.3109 13.3452  26
   2  -2  15 32.2486 14.0031  24
   2  -2  16 92.2275 16.5565  24
   2  -2  16 130.504 18.3221  26
  -2   1  15 930.206 53.2550  24
  -2   1  14 343.437 39.1661  24
  -2   1  14 343.003 35.9617  23
  -2   1  13 102.572 23.9824  23
  -2   1  13 110.632 28.8771  24
  -2   1  12 6849.01 217.138  27
  -2   1  12 6967.06 188.854  23
  -2   1  12 7008.32 217.917  49
  -2   1  12 6714.27 205.443  24
  -2   1  11 4500.73 164.005  24
  -2   1  11 5153.27 166.369  19
  -2   1  11 4533.54 177.239  27
  -2   1  11 4538.85 174.429  49
  -2   1  11 4659.74 152.355  23
  -2   1  10 5390.57 180.051  24
  -2   1  10 5782.34 193.317  49
  -2   1  10 5759.67 167.072  23
  -2   1  10 5418.57 192.306  27
  -2   1   9 1709.16 260.761  35
  -2   1   9 2245.16 311.849   7
   2  -1  -9 1808.42 283.866  33
   2  -1  -9 2421.85 239.423  29
  -2   1   9 1953.90 292.868   9
  -2   1   8 5869.99 453.610  35
   2  -1  -8 5379.05 433.072  33
  -2   1   8 5439.22 458.872   9
   2  -1  -8 6577.45 372.262  29
  -2   1   8 5705.15 490.864   8
  -2   1   8 6252.20 480.889   7
  -2   1   7 75415.7 1698.02  35
  -2   1   7 73226.4 1689.26   9
   2  -1  -7 76862.5 1382.87  29
  -2   1   7 72995.8 1767.21   8
  -2   1   6 517.104 122.229  35
  -2   1   6 301.619 108.245   8
   2  -1  -6 486.079 89.2868  29
  -2   1   6 391.004 105.814   9
  -2   1   6 344.805 97.6058   7
  -2   1   6 353.103 74.6786   4
  -2   1   5 29328.0 855.985  35
   2  -1  -5 27719.0 540.336  30
  -2   1   5 28233.7 687.045   4
   2  -1  -5 28853.2 645.743  29
  -2   1   5 28791.7 836.207   7
  -2   1   5 28894.4 810.333   9
   2  -1  -5 28611.5 760.415  33
  -2   1   5 28545.3 883.949   8
  -2   1   4 14602.2 558.538   8
   2  -1  -4 14186.4 471.228  33
   2  -1  -4 15049.0 480.625   3
  -2   1   4 14272.6 434.992   4
  -2   1   4 14866.2 493.748   9
   2  -1  -4 13612.6 384.357  29
   2  -1  -4 13869.4 316.181  30
  -2   1   4 14504.0 541.904  35
  -2   1   3 7389.81 186.481  34
  -2   1   3 7921.91 366.946   8
   2  -1  -3 7564.64 198.045  30
  -2   1   3 7709.65 209.546   6
   2  -1  -3 8162.67 313.206   3
   2  -1  -3 8399.88 323.581  33
  -2   1   3 7878.10 301.704   9
   2  -1  -3 8076.32 256.195  29
   2  -1  -3 7649.92 209.027   1
  -2   1   3 7730.70 360.412  35
   2  -1  -2 4434.60 215.950  33
   2  -1  -2 4378.40 155.191   1
   2  -1  -2 4520.32 172.658  29
  -2   1   2 4149.00 163.493   6
  -2   1   1 39832.3 752.519  35
  -2   1   1 36256.4 550.270  32
  -2   1   1 37692.0 639.277   6
   2  -1  -1 39977.8 627.855  29
   2  -1  -1 40221.6 637.974   1
  -2   1   1 38513.9 648.894  28
   2  -1   0 43036.2 707.410  29
  -2   1   0 46319.0 726.769  28
   2  -1   0 46807.7 769.299   1
  -2   1   0 44740.4 643.871  32
  -2   1   0 43246.8 733.995   6
  -2   1   0 44855.2 754.134  35
  -2   1  -1 85924.6 1113.37  32
   2  -1   1 84508.5 1285.50   1
  -2   1  -2 37325.5 644.734  32
   2  -1   2 36578.9 794.909   1
   2  -1   2 38681.9 533.116   2
   2  -1   3 166699. 2403.80   1
   2  -1   3 165450. 2568.96   3
  -2   1  -3 178270. 2173.55  32
   2  -1   3 180125. 2439.74   5
   2  -1   3 177786. 2014.72  10
   2  -1   3 160118. 2261.83   9
  -2   1  -3 172421. 2162.71  28
  -2   1  -3 176021. 2282.76   6
   2  -1   3 184158. 2720.34   7
   2  -1   4 40546.1 964.856   1
   2  -1   4 39109.5 601.754  10
  -2   1  -4 39883.0 762.671  32
   2  -1   4 38868.8 906.072   9
  -2   1  -4 37989.2 735.858  28
   2  -1   4 39005.2 1028.84   7
   2  -1   4 40029.3 934.723   5
  -2   1  -4 41812.1 854.815   6
  -2   1  -5 3371.05 206.613  32
  -2   1  -5 4108.32 217.199  28
   2  -1   5 3669.27 280.700   5
   2  -1   5 3535.91 299.995   7
   2  -1   5 3340.61 266.549   4
   2  -1   5 3539.06 281.568   9
  -2   1  -5 3261.47 231.612   6
  -2   1  -5 4315.99 248.342  30
   2  -1   6 6481.46 398.521   4
   2  -1   6 6067.66 397.959   5
  -2   1  -6 6404.84 308.925  32
  -2   1  -6 6717.47 339.830  30
   2  -1   6 6277.95 438.054   9
  -2   1  -6 6488.94 292.406  28
  -2   1  -6 6584.99 352.436   6
   2  -1   6 5819.16 413.838   7
  -2   1  -7 8267.47 419.934   6
  -2   1  -7 8988.32 395.160  32
  -2   1  -7 8686.12 422.858  30
   2  -1   7 8467.25 553.300   9
   2  -1   7 8021.65 530.945   7
  -2   1  -7 8262.56 349.069  28
   2  -1   7 8526.37 509.390   5
   2  -1   7 8452.94 480.292   4
  -2   1  -8 1715.12 198.492  30
   2  -1   8 1427.52 241.859   9
   2  -1   8 1729.85 272.125   7
   2  -1   8 1763.68 229.191   4
  -2   1  -8 1646.01 178.144  32
   2  -1   8 1669.70 242.978   5
   2  -1   9 25613.8 1031.02   5
  -2   1  -9 26045.1 867.274  30
   2  -1   9 26070.2 1174.52   9
   2  -1   9 24289.5 1111.63   7
  -2   1  -9 26080.1 785.979  32
   2  -1  10 298.478 39.0396  22
   2  -1  10 248.654 42.4328  40
   2  -1  10 276.115 43.3327  21
   2  -1  10 240.512 35.4895  23
   2  -1  10 316.652 41.8916  26
   2  -1  11 121.536 27.0544  23
   2  -1  11 79.3253 25.6395  26
   2  -1  11 62.9787 22.8006  22
   2  -1  11 58.4925 28.3295  40
   2  -1  12 305.760 43.2161  26
   2  -1  12 252.637 36.6686  23
   2  -1  13 843.829 66.7103  26
   2  -1  13 771.854 57.2893  23
   2  -1  13 782.134 68.2066  24
   2  -1  14 274.510 32.2367  23
   2  -1  14 246.242 35.5631  24
   2  -1  14 223.964 27.6176  26
   2  -1  15 1497.15 58.1676  23
   2  -1  15 1412.32 71.0254  24
  -2   0  16 874.517 43.9600  24
  -2   0  15 596.117 42.8610  23
  -2   0  15 485.013 42.6831  24
  -2   0  14 29.6059 20.2781  23
  -2   0  14 45.6466 21.2517  24
  -2   0  13 20.3227 23.0337  19
  -2   0  13-0.05185 20.6399  23
  -2   0  13 12.7843 25.8658  24
  -2   0  12 67.7737 25.6058  27
  -2   0  12 37.4215 23.1895  23
  -2   0  12-2.87439 29.0746  24
  -2   0  11 16170.2 358.133  27
  -2   0  11 16449.8 342.864  24
  -2   0  11 16354.3 322.027  23
  -2   0  11 17043.5 335.270  19
  -2   0  11 17168.9 355.070  49
  -2   0  10 971.303 67.3564  19
  -2   0  10 889.206 70.0564  49
  -2   0  10 861.584 73.9340  27
  -2   0  10 865.118 67.3578  24
  -2   0   9 35114.0 1199.65  35
   2   0  -9 33716.4 1229.02  33
  -2   0   9 38038.1 1322.93   9
   2   0  -9 38151.0 972.617  29
  -2   0   9 41318.1 1324.58   7
  -2   0   8 49747.5 1373.50   7
  -2   0   8 45978.9 1313.57  35
  -2   0   8 49355.6 1407.92   9
   2   0  -8 50165.1 1075.52  29
  -2   0   8 50565.8 1494.42   8
  -2   0   7 35453.6 1089.18   9
   2   0  -7 38523.5 850.860  29
  -2   0   7 39535.3 1194.28   8
  -2   0   7 41835.3 1136.32   7
  -2   0   7 36903.4 1081.92  35
  -2   0   6 3542.62 310.868   8
  -2   0   6 3391.97 282.409  35
  -2   0   6 3266.68 279.011   9
   2   0  -6 3459.40 208.760  29
  -2   0   6 3390.78 279.883   7
  -2   0   5 69813.4 1337.91   7
  -2   0   5 69843.5 1386.64  35
   2   0  -5 71603.3 1248.01  33
   2   0  -5 71327.2 942.141  30
  -2   0   5 69088.9 1350.26   9
   2   0  -5 71947.9 1102.64  29
  -2   0   5 72591.7 1456.10   8
  -2   0   4 126883. 1955.58  35
  -2   0   4 130691. 1905.33   9
   2   0  -4 135198. 1807.09  33
   2   0  -4 127541. 1623.79  29
   2   0  -4 126979. 1448.24  30
  -2   0   4 135461. 2017.85   8
   2   0  -4 134532. 1829.61   3
  -2   0   4 120413. 1573.79  34
  -2   0   3 7.04587 13.7402  34
   2   0  -3 58.0576 27.8949   3
   2   0  -3 35.2643 18.0048  29
   2   0  -3 105.240 32.0579  33
  -2   0   3 156.773 50.2879   8
  -2   0   2 134482. 1721.65  34
   2   0  -2 132928. 1769.49  33
   2   0  -2 141207. 1612.46  29
  -2   0   2 153573. 1946.21   8
   2   0  -2 145884. 1803.06   3
  -2   0   2 143431. 1659.28   6
  -2   0   2 138868. 1898.25  35
  -2   0   1 21082.6 474.775  35
  -2   0   1 20297.5 412.589  32
   2   0  -1 21291.6 461.023  33
   2   0  -1 20934.6 334.412  29
  -2   0   1 21295.0 417.019   6
   2   0  -1 21801.9 460.853   3
  -2   0   0 67948.2 825.574  30
  -2   0   0 65201.8 970.336   6
  -2   0   0 65065.8 940.878  35
   2   0   0 68934.4 1051.02  33
  -2   0   0 63643.3 912.947  32
   2   0   1 250413. 3017.96  33
  -2   0  -1 252586. 2698.04  35
  -2   0  -1 239730. 2739.68  30
   2   0   1 234132. 2763.20   2
   2   0   2 226575. 3110.73   2
  -2   0  -2 212944. 2507.78  28
   2   0   2 220671. 2630.44   5
  -2   0  -2 201610. 2460.18  30
   2   0   2 194076. 2848.27   3
   2   0   3 209283. 2751.03   5
  -2   0  -3 212451. 2620.83  30
  -2   0  -3 214732. 2594.91  28
  -2   0  -3 219921. 2616.80  32
   2   0   3 213915. 3060.51   7
  -2   0  -3 208921. 2743.08   6
   2   0   4 2911.88 238.812   4
   2   0   4 2789.24 213.920   5
  -2   0  -4 2754.77 179.980  30
  -2   0  -4 2822.34 165.563  28
   2   0   4 2463.82 242.806   7
  -2   0  -4 2899.67 177.423  32
  -2   0  -4 2807.26 206.858   6
  -2   0  -5 111.512 46.5880   6
  -2   0  -5 96.4075 37.3700  32
   2   0   5 103.880 56.6159   9
   2   0   5 127.385 60.8220   4
   2   0   5 93.8639 43.7753   5
   2   0   6 409.167 97.4254   5
  -2   0  -6 271.808 62.6069  32
  -2   0  -6 582.516 98.5265  30
   2   0   6 296.247 111.098   9
  -2   0  -6 354.521 66.5969  28
   2   0   6 409.853 107.788   4
  -2   0  -6 380.366 87.2941   6
   2   0   6 412.413 112.560   7
   2   0   7 16396.8 788.701   7
   2   0   7 16430.1 696.975   5
  -2   0  -7 17675.6 564.331  32
  -2   0  -7 16990.3 608.221  30
   2   0   7 17458.7 852.182   9
   2   0   7 16431.9 723.203   4
  -2   0  -7 15905.4 615.453   6
   2   0   8 7484.97 494.647   5
  -2   0  -8 7614.51 429.176  30
   2   0   8 8111.18 623.171   9
  -2   0  -8 7871.21 430.882  29
  -2   0  -8 7810.57 393.648  32
   2   0   8 7680.30 581.016   7
   2   0   8 7922.42 524.056   4
   2   0   9 2412.98 302.478   5
  -2   0  -9 2463.26 260.027  30
   2   0   9 2494.84 374.668   9
  -2   0  -9 2463.32 255.635  29
   2   0   9 2399.79 348.785   7
  -2   0  -9 2432.82 231.126  32
   2   0  10 3395.65 147.426  36
   2   0  10 3268.82 128.999  26
   2   0  10 2967.98 115.835  23
   2   0  10 3482.18 153.639  40
   2   0  10 3508.55 137.073  22
   2   0  11 4656.30 182.613  40
   2   0  11 4655.40 158.506  26
   2   0  11 4549.82 158.255  22
   2   0  12 212.878 37.2915  26
   2   0  12 186.349 30.0410  23
   2   0  12 188.409 31.9675  22
   2   0  13 518.919 43.2465  23
   2   0  13 505.285 56.0658  24
   2   0  13 576.054 49.2035  26
   2   0  14 325.710 39.3373  24
   2   0  14 435.960 40.8204  26
   2   0  15 3.93547 11.4436  24
   2   0  15 9.56422 12.3780  26
  -2  -1  16 37.9467 15.5977  23
  -2  -1  16 16.8005 12.2225  24
  -2  -1  15 18.2154 16.0988  23
  -2  -1  15-6.32814 15.7966  24
  -2  -1  14 11847.1 269.076  24
  -2  -1  14 12210.8 256.531  23
  -2  -1  13 1486.65 85.6338  23
  -2  -1  13 1548.67 92.2395  24
  -2  -1  13 1744.89 96.7100  19
  -2  -1  12 130.100 29.2437  19
  -2  -1  12 95.9723 24.4017  24
  -2  -1  12 167.587 33.5286  23
  -2  -1  11 18242.0 347.774  19
  -2  -1  11 18026.4 371.916  27
  -2  -1  11 17925.3 354.177  24
  -2  -1  11 17068.2 330.824  23
  -2  -1  10 24250.4 1013.86  35
   2   1 -10 22507.3 763.626  29
  -2  -1   9 32458.5 1116.70   7
   2   1  -9 33921.7 879.078  29
  -2  -1   8 38200.9 1135.93   7
   2   1  -8 38169.3 887.214  29
  -2  -1   7 4075.65 334.297  35
   2   1  -7 4176.31 231.425  32
   2   1  -7 4285.98 246.603  29
  -2  -1   7 4467.16 373.161   8
  -2  -1   7 4728.09 353.305   5
  -2  -1   7 4080.72 320.523   7
  -2  -1   6 12282.2 521.569   5
   2   1  -6 11179.1 418.636  33
  -2  -1   6 11067.9 509.055  35
   2   1  -6 11525.0 376.579  29
  -2  -1   6 12718.8 511.963   7
  -2  -1   6 11349.8 545.023   8
  -2  -1   5 142599. 2058.60   5
  -2  -1   5 130231. 2068.21  35
  -2  -1   5 120782. 1758.89  34
   2   1  -5 130198. 1819.92  33
   2   1  -5 131927. 1577.81  30
   2   1  -5 137832. 1733.43  29
  -2  -1   5 133782. 2133.95   8
  -2  -1   5 142758. 2022.43   7
  -2  -1   4 14609.1 415.931  34
   2   1  -4 15383.6 403.404  33
   2   1  -4 16811.8 449.657   3
   2   1  -4 15638.7 349.934  29
  -2  -1   4 15126.3 513.037  35
  -2  -1   4 16130.9 531.873   8
  -2  -1   4 17007.8 498.980   5
  -2  -1   3 28640.9 690.733  35
  -2  -1   3 27620.1 594.339  34
   2   1  -3 29800.5 454.023  29
  -2  -1   3 29104.9 686.427   8
   2   1  -3 29824.1 547.594  33
   2   1  -3 30903.9 587.940   3
  -2  -1   2 106123. 1524.83  35
  -2  -1   2 104758. 1439.18  34
   2   1  -2 104368. 1368.34   3
   2   1  -2 103568. 1143.95  29
   2   1  -2 103428. 1339.01  33
  -2  -1   2 105825. 1334.57   6
  -2  -1   2 109476. 1497.00   8
   2   1  -1 199641. 2356.82   3
   2   1  -1 185917. 2316.10  33
  -2  -1   1 190133. 2163.91  30
  -2  -1   1 202058. 2319.78   8
  -2  -1   1 202488. 2411.05  35
  -2  -1   1 190919. 2320.46   6
  -2  -1   0 27751.7 470.452  30
  -2  -1   0 27649.5 336.036  29
  -2  -1   0 30076.6 549.416  35
  -2  -1   0 28463.6 583.272   6
   2   1   0 30213.3 592.289   2
   2   1   0 28310.9 659.479   3
   2   1   1 1099.64 120.616   4
   2   1   1 1170.68 81.8365   5
  -2  -1  -1 1209.00 91.1695  30
   2   1   1 1146.45 136.859   3
   2   1   1 1230.04 156.696   2
   2   1   2 128284. 1662.22  31
  -2  -1  -2 124019. 1620.07  30
  -2  -1  -2 117053. 1612.94  28
   2   1   2 125359. 1991.14   7
   2   1   2 129904. 1891.18   4
   2   1   2 128367. 3364.81   2
  -2  -1  -2 122039. 1645.72  32
   2   1   2 120911. 1589.38   5
  -2  -1  -2 125804. 1784.84   6
   2   1   3 14813.1 424.649   5
  -2  -1  -3 15200.7 427.077  32
  -2  -1  -3 14578.9 417.607  30
  -2  -1  -3 15277.5 400.291  28
   2   1   3 15368.6 553.603   4
   2   1   3 14312.9 554.892   7
  -2  -1  -3 15288.1 498.619   6
   2   1   3 16755.5 605.841   2
   2   1   4 5518.89 284.199   5
  -2  -1  -4 5445.45 257.553  32
  -2  -1  -4 5961.43 277.360  30
  -2  -1  -4 5535.17 236.073  28
   2   1   4 5244.07 265.486   2
   2   1   4 5026.05 343.899   7
  -2  -1  -4 5500.20 317.798   6
   2   1   4 5974.05 367.345   4
   2   1   5 35723.2 868.965   5
  -2  -1  -5 38065.9 847.507  30
  -2  -1  -5 37752.6 808.602  29
  -2  -1  -5 36788.7 722.628  28
  -2  -1  -5 37573.8 805.124  32
   2   1   5 40096.9 1072.69   4
  -2  -1  -5 38519.2 956.843   6
   2   1   5 36615.1 1062.60   7
  -2  -1  -6 3589.27 235.677  32
  -2  -1  -6 3934.16 271.761  30
  -2  -1  -6 3893.22 256.379  29
   2   1   6 3952.02 388.108   9
   2   1   6 3609.62 332.774   4
   2   1   6 3761.27 353.878   7
   2   1   6 3924.27 289.827   5
  -2  -1  -7 192.796 61.5805  32
  -2  -1  -7 179.104 63.3556  30
  -2  -1  -7 264.085 76.3090  29
   2   1   7 154.794 85.2965   9
   2   1   7 187.864 87.1492   4
   2   1   7 129.288 70.9039   5
   2   1   7 105.746 85.5207   7
   2   1   8 523.584 146.160   4
  -2  -1  -8 402.502 98.7666  32
  -2  -1  -8 352.631 97.4981  30
  -2  -1  -8 449.540 102.299  29
   2   1   8 539.888 180.140   9
   2   1   8 493.712 162.042   7
   2   1   9 306.972 43.2206  36
   2   1   9 361.915 41.2714  26
   2   1   9 341.542 42.9118  22
   2   1   9 326.929 45.9731  40
   2   1  10 5238.25 194.431  40
   2   1  10 5284.97 174.352  22
   2   1  10 5074.51 188.638  36
   2   1  10 4977.39 162.384  26
   2   1  11 1503.56 100.175  36
   2   1  11 1395.75 84.5046  26
   2   1  11 1421.03 87.3924  22
   2   1  12 3095.95 136.496  24
   2   1  12 3505.56 129.066  26
   2   1  12 3323.90 128.271  22
   2   1  13 2560.13 100.986  26
   2   1  13 2029.05 101.314  24
   2   1  14 59.3965 19.6971  26
   2   1  14 32.9572 16.6154  24
  -2  -2  16 1228.07 58.5395  23
  -2  -2  16 1142.81 54.0094  24
  -2  -2  15 156.791 26.1087  24
  -2  -2  15 215.961 36.0908  19
  -2  -2  15 127.133 24.8312  23
  -2  -2  14 1965.47 94.8884  23
  -2  -2  14 2193.41 105.314  19
  -2  -2  14 1884.14 94.2165  24
  -2  -2  13 222.345 38.1773  19
  -2  -2  13 235.946 33.9763  24
  -2  -2  13 272.727 38.0909  23
  -2  -2  12 13785.3 302.425  19
  -2  -2  12 13373.7 285.005  23
  -2  -2  12 13885.2 294.106  24
  -2  -2  11 9537.57 237.242  19
  -2  -2  11 10367.6 259.360  27
  -2  -2  11 9525.92 228.855  23
  -2  -2  11 10421.4 240.580  24
  -2  -2  10 58601.8 1647.97  35
   2   2 -10 61710.3 1369.45  29
  -2  -2  10 62298.6 1646.81   7
  -2  -2   9 642.961 155.007  35
  -2  -2   9 1005.66 198.114   5
   2   2  -9 744.495 121.057  29
  -2  -2   9 907.115 175.030   7
   2   2  -8 73658.1 1327.91  29
  -2  -2   8 75343.8 1667.44   5
  -2  -2   8 72991.8 1570.04   7
  -2  -2   7 331.739 95.4162  35
   2   2  -7 489.488 84.2634  33
  -2  -2   7 348.242 95.9090   5
  -2  -2   7 426.021 93.7100   7
  -2  -2   6 132528. 2217.94  35
  -2  -2   6 142374. 2149.21   5
   2   2  -6 135375. 1812.59  33
  -2  -2   6 141555. 2288.10   8
  -2  -2   5 39586.5 954.964   8
  -2  -2   5 38416.9 860.384   5
  -2  -2   5 37337.6 949.690  35
   2   2  -5 38212.1 677.842  33
   2   2  -5 39564.0 769.261   3
  -2  -2   4 1050.86 110.974   5
   2   2  -4 973.611 77.2325  33
  -2  -2   4 864.949 64.1584   1
   2   2  -4 1003.53 94.9088   3
  -2  -2   4 874.209 123.323  10
  -2  -2   4 987.765 132.648  35
  -2  -2   4 1082.42 131.369   8
  -2  -2   3 184945. 2466.42  35
   2   2  -3 171016. 2000.19  33
  -2  -2   3 180902. 2390.17  10
  -2  -2   3 181525. 2306.11   8
  -2  -2   3 164403. 2051.70   1
   2   2  -3 183050. 2089.14   3
  -2  -2   3 173257. 2149.12   5
  -2  -2   3 173428. 2315.59  34
   2   2  -3 171363. 1998.54   4
   2   2  -2 110863. 1420.24   4
   2   2  -2 109558. 1394.65   3
  -2  -2   2 109657. 1622.42  35
  -2  -2   2 100898. 1543.01  34
   2   2  -2 106108. 1324.78  33
  -2  -2   2 103277. 1533.25  10
  -2  -2   2 103018. 1435.84   8
   2   2  -1 26976.1 599.633   3
  -2  -2   1 26788.1 562.900  10
  -2  -2   1 26620.5 527.001  30
   2   2  -1 26216.0 586.745   4
  -2  -2   1 27661.2 476.796   8
  -2  -2   0 50692.0 923.832  34
  -2  -2   0 48060.8 764.699  10
   2   2   0 53806.2 912.351  31
  -2  -2   0 52557.9 828.200  30
  -2  -2   0 50337.8 647.044  29
  -2  -2   0 48899.4 629.694   8
  -2  -2   0 48882.0 894.918  32
   2   2   0 51793.6 949.551   4
   2   2   0 52382.5 1253.74   2
   2   2   0 49382.8 941.625   3
   2   2   1 44391.2 967.021   7
   2   2   1 48282.8 1006.16  31
  -2  -2  -1 42095.1 629.938  10
  -2  -2  -1 46512.2 802.424  30
  -2  -2  -1 47282.3 658.730  29
   2   2   1 47603.4 963.645   4
   2   2   1 42348.3 1891.30   2
  -2  -2  -1 46838.5 879.863  34
  -2  -2  -1 43743.9 832.641  32
   2   2   2 680.576 59.9976   5
   2   2   2 640.496 222.725   2
  -2  -2  -2 501.556 80.2266  34
   2   2   2 404.610 134.094  31
  -2  -2  -2 615.362 83.0748  30
  -2  -2  -2 583.275 63.2720  29
   2   2   2 591.794 106.866   4
  -2  -2  -2 647.037 89.4763  32
   2   2   2 521.471 97.5241   7
   2   2   3 21277.9 700.412   7
   2   2   3 24283.1 800.483   2
  -2  -2  -3 22456.9 592.230  34
   2   2   3 20926.7 484.020   5
   2   2   3 23401.1 740.539   4
  -2  -2  -3 22176.7 567.533  32
  -2  -2  -3 21658.1 573.149  30
  -2  -2  -3 21445.0 486.673  29
   2   2   4 697.116 118.884   2
  -2  -2  -4 425.906 81.7645  34
  -2  -2  -4 494.007 87.3021  30
  -2  -2  -4 482.176 74.0550  29
   2   2   4 467.451 114.319   7
   2   2   4 580.234 122.556   4
   2   2   5 49.1054 59.6465   7
  -2  -2  -5 172.503 59.5647  34
  -2  -2  -5 90.3748 33.9581  32
  -2  -2  -5 85.2138 45.2207  30
  -2  -2  -5 112.339 43.1726  29
   2   2   5 83.4799 55.7348   4
  -2  -2  -6 42032.9 960.006  32
  -2  -2  -6 44713.4 1069.64  30
   2   2   6 45545.5 1328.98   4
  -2  -2  -6 45122.2 977.363  29
   2   2   6 44326.9 1424.58   9
   2   2   6 41664.4 1299.80   7
  -2  -2  -7 907.209 151.604  30
  -2  -2  -7 960.537 142.575  29
   2   2   7 662.631 193.071   9
   2   2   7 894.476 197.089   7
  -2  -2  -7 727.034 121.658  32
   2   2   7 717.593 175.894   4
   2   2   8 5209.28 187.476  36
  -2  -2  -8 5643.28 368.526  29
   2   2   8 5212.21 154.801  26
   2   2   8 5243.71 481.397   4
   2   2   8 5280.27 505.540   7
   2   2   8 5450.65 170.421  22
   2   2   8 5556.89 188.873  40
   2   2   9 457.626 57.0033  36
   2   2   9 542.278 50.3554  26
  -2  -2  -9 490.845 48.8250  46
   2   2   9 547.099 55.2010  22
   2   2   9 524.799 59.4048  49
   2   2   9 523.900 62.8042  40
   2   2  10 4034.90 142.185  26
   2   2  10 4271.26 174.274  36
   2   2  10 4195.15 156.362  22
   2   2  11 2642.28 118.216  22
   2   2  11 2417.29 125.887  36
   2   2  11 2611.48 111.159  26
   2   2  11 2242.29 116.391  24
  -2  -2 -12 1611.49 80.5434  38
   2   2  12 1751.32 86.0703  26
   2   2  13 2290.34 88.3551  26
   2   2  13 1833.34 87.2268  24
   2   2  14 36.2729 15.6249  24
   2   2  14 54.6723 15.5693  26
  -2  -3  17 117.990 17.1714  23
  -2  -3  16 150.219 29.2709  19
  -2  -3  16 47.8649 15.1607  23
  -2  -3  15 19.6960 20.6432  23
  -2  -3  15 137.926 31.3055  19
  -2  -3  14 5728.25 177.321  19
  -2  -3  14 5670.18 168.359  23
  -2  -3  13 297.151 41.5457  23
  -2  -3  13 329.764 44.6865  19
  -2  -3  12 17125.6 347.923  19
  -2  -3  12 17483.8 335.424  23
  -2  -3  11 11193.3 260.945  19
  -2  -3  11 10896.4 245.486  23
  -2  -3  10 1604.04 258.371   5
  -2  -3  10 1025.95 199.883  35
   2   3 -10 1839.37 218.052  29
  -2  -3   9 10449.3 610.106   5
  -2  -3   9 9671.44 599.347  35
   2   3  -9 9782.09 465.812  32
   2   3  -9 8241.36 446.955  31
   2   3  -9 9507.98 492.188  28
   2   3  -9 8666.53 428.510   2
  -2  -3   8 5322.73 398.748   5
   2   3  -8 4748.03 303.620   2
  -2  -3   8 5488.73 424.692  35
  -2  -3   7 60237.0 1448.72  35
  -2  -3   7 59062.6 1281.70  34
   2   3  -7 60159.5 1123.71   3
  -2  -3   7 62167.3 1355.04   5
  -2  -3   6 524.210 118.773  35
  -2  -3   6 595.475 107.006   5
  -2  -3   6 596.890 125.220  10
  -2  -3   6 627.574 113.171  34
   2   3  -6 717.018 94.0767   3
  -2  -3   5 12577.1 449.146   5
  -2  -3   5 14003.1 580.465  35
  -2  -3   5 13207.6 549.683  10
   2   3  -5 13862.3 372.245   3
  -2  -3   5 11925.9 488.688  34
   2   3  -5 11400.3 428.108   2
   2   3  -4 29043.7 513.580   3
  -2  -3   4 26936.5 607.634   5
  -2  -3   4 30057.4 837.078  35
  -2  -3   4 30401.4 808.870  10
  -2  -3   4 25880.4 722.048  34
  -2  -3   4 25576.4 591.461   1
   2   3  -4 27195.8 681.265   2
   2   3  -3 16207.9 524.210   2
  -2  -3   3 15892.0 526.200  34
  -2  -3   3 15128.0 517.675  10
  -2  -3   3 14767.1 355.408   5
   2   3  -3 15549.2 337.746   3
  -2  -3   2 5191.90 274.524  10
   2   3  -2 6115.21 313.036  31
  -2  -3   2 5821.24 307.331  34
   2   3  -2 6378.36 371.443   2
   2   3  -2 5670.10 238.888   4
   2   3  -2 6034.64 226.041   3
   2   3  -1 3480.71 209.019   7
  -2  -3   1 3191.15 219.612  34
  -2  -3   1 2897.49 186.892  10
   2   3  -1 3683.71 269.125  31
  -2  -3   1 3215.46 196.539  30
  -2  -3   1 3247.38 142.408  29
   2   3  -1 3363.54 362.457   2
   2   3  -1 3054.14 197.147   4
   2   3   0 235237. 3388.02  31
  -2  -3   0 225292. 2763.73  30
  -2  -3   0 216070. 2506.52  29
   2   3   0 226502. 2792.02   7
  -2  -3   0 221107. 2848.73  34
   2   3   0 207615. 4941.29   2
   2   3   0 222559. 2880.45   4
   2   3   1 87.2093 48.1898   4
  -2  -3  -1 64.1051 37.9092  34
  -2  -3  -1 221.876 58.7838  32
   2   3   1 298.588 133.996  31
  -2  -3  -1 46.2919 23.3644  10
  -2  -3  -1 45.2245 33.3236  30
  -2  -3  -1 101.306 30.9848  29
   2   3   1 427.979 257.291   2
   2   3   1 112.678 51.0673   7
   2   3   2 123700. 2081.20   4
  -2  -3  -2 120818. 1872.37  32
  -2  -3  -2 122084. 1871.41  30
   2   3   2 136187. 2297.11  31
  -2  -3  -2 127783. 1928.82  34
  -2  -3  -2 133748. 1694.19  29
   2   3   2 143707. 2785.51   2
   2   3   2 120678. 1974.56   7
   2   3   3 41850.4 1146.33   2
  -2  -3  -3 43768.8 961.224  30
  -2  -3  -3 42664.2 949.635  34
  -2  -3  -3 42262.0 803.197  29
  -2  -3  -3 41135.0 913.925  32
   2   3   3 43727.8 1144.51   4
  -2  -3  -4 2409.24 205.005  32
   2   3   4 2537.58 279.854   4
  -2  -3  -4 2549.29 222.332  30
  -2  -3  -4 2739.26 192.098  29
   2   3   4 2325.40 242.598   2
  -2  -3  -4 2739.53 222.290  34
   2   3   4 2259.73 249.137   7
   2   3   5 17.1313 49.8254   4
   2   3   5 58.6198 48.5528   7
  -2  -3  -5 7.81182 34.8872  32
  -2  -3  -5-9.27586 32.7791  30
  -2  -3  -5-1.00875 25.7129  29
  -2  -3  -6 7716.46 455.086  30
  -2  -3  -6 7463.30 381.608  29
   2   3   6 7609.52 610.044   9
   2   3   6 7667.98 557.530   4
   2   3   6 7257.20 537.533   7
   2   3   7 3248.82 117.328  26
  -2  -3  -7 3455.42 321.123  30
  -2  -3  -7 3448.45 278.546  29
   2   3   7 2870.27 402.877   9
   2   3   7 3029.10 372.432   4
   2   3   7 2988.23 366.032   7
   2   3   7 3309.25 128.362  22
   2   3   7 3218.37 144.070  36
  -2  -3  -8 52.5738 21.0752  46
   2   3   8 42.9159 24.2919  36
   2   3   8 1.87036 20.8073  49
   2   3   8 18.4919 14.5966  26
   2   3   8 1.45752 20.3519  22
   2   3   8 25.4192 21.1788  16
  -2  -3  -9 459.951 47.8652  46
   2   3   9 419.241 54.5182  16
   2   3   9 468.610 57.6580  49
   2   3   9 462.909 51.5687  22
   2   3   9 445.018 45.6705  26
   2   3   9 475.213 59.9212  36
   2   3  10 3171.39 145.563  49
   2   3  10 3737.25 145.124  22
   2   3  10 3786.00 133.655  26
   2   3  10 3555.62 157.736  36
   2   3  10 3247.36 137.493  24
   2   3  11 399.282 46.5479  24
   2   3  11 419.057 49.2073  49
   2   3  11 463.415 47.5319  26
  -2  -3 -11 465.082 46.9233  38
  -2  -3 -12 4549.96 130.318  38
   2   3  12 4808.66 147.318  24
   2   3  13 898.749 53.7676  24
   2   3  13 1040.50 53.2520  26
  -2  -4  17 349.304 27.4381  23
  -2  -4  16 874.868 52.6561  23
  -2  -4  16 1046.78 61.5856  19
  -2  -4  15 329.000 41.8052  19
  -2  -4  15 320.692 39.2269  23
  -2  -4  14 807.983 64.1654  19
  -2  -4  14 849.133 65.1236  23
  -2  -4  13 19784.1 382.393  19
  -2  -4  13 20014.0 367.672  23
  -2  -4  12 9664.52 247.755  19
  -2  -4  12 10326.6 261.784  14
  -2  -4  12 10201.5 240.048  23
  -2  -4  11 7087.36 202.551  19
  -2  -4  11 7419.26 194.241  23
  -2  -4  10 4366.51 421.515   5
   2   4 -10 3878.97 316.202  32
   2   4 -10 3728.51 330.010  28
  -2  -4   9 18379.1 815.634   5
   2   4  -9 15365.3 731.962  31
  -2  -4   8 5013.48 383.668   5
   2   4  -8 4735.09 376.296  31
   2   4  -8 4850.23 327.234   2
  -2  -4   7 2888.27 262.336   5
  -2  -4   7 2695.91 273.905  34
  -2  -4   7 2895.06 299.953  10
   2   4  -7 2720.74 269.656  31
   2   4  -7 2409.13 226.512   2
  -2  -4   6 285.366 86.8279  34
   2   4  -6 117.563 49.5364  31
  -2  -4   6 130.724 55.1011   5
  -2  -4   6 118.815 63.1285  10
   2   4  -6 115.588 56.3879   2
  -2  -4   5 35585.9 994.811  10
   2   4  -5 34016.7 969.573  31
   2   4  -5 34158.6 916.339   2
  -2  -4   5 32753.6 764.428   5
  -2  -4   5 34698.8 948.934  34
  -2  -4   4 225.862 71.4532  34
   2   4  -4 173.698 67.1797  31
  -2  -4   4 238.168 76.4163  10
   2   4  -4 257.075 84.8001   2
  -2  -4   4 156.463 50.0921   1
  -2  -4   3 11195.5 492.152  34
  -2  -4   3 12411.2 503.437  10
   2   4  -3 14018.2 622.432  31
   2   4  -3 11146.0 340.284   4
   2   4  -3 13199.1 690.480   2
  -2  -4   2 1733.19 183.716  34
   2   4  -2 1162.95 263.789   2
  -2  -4   2 1211.94 148.118  10
   2   4  -2 1588.23 234.179  31
   2   4  -2 1290.43 127.867   4
   2   4  -1 55518.1 1094.11   4
  -2  -4   1 56362.7 1185.30  34
  -2  -4   1 54108.6 1077.13  10
   2   4  -1 59231.2 1754.17  31
  -2  -4   1 57532.3 1128.44  30
  -2  -4   1 54012.3 934.645  29
   2   4  -1 51496.1 2608.30   2
   2   4   0 84520.4 1321.18   7
   2   4   0 78296.1 2373.55  31
  -2  -4   0 80391.9 1378.17  10
  -2  -4   0 89993.0 1526.99  30
  -2  -4   0 91493.1 1313.18  29
  -2  -4   0 89894.6 1575.62  34
   2   4   0 89427.9 1580.16   4
   2   4   0 75794.7 3064.33   2
  -2  -4  -1 3815.82 274.693  34
   2   4   1 4089.03 305.744   4
   2   4   1 3743.13 414.140  31
  -2  -4  -1 3399.38 252.000  30
  -2  -4  -1 3836.10 208.805  29
   2   4   1 3898.50 505.966   2
   2   4   1 3706.36 240.659   7
  -2  -4  -2 18912.5 645.107  34
  -2  -4  -2 17679.7 624.312  30
  -2  -4  -2 19134.4 519.713  29
   2   4   2 17667.2 706.568   4
   2   4   2 17687.1 612.505   7
   2   4   2 20105.6 887.780   2
  -2  -4  -3 1047.06 150.503  34
  -2  -4  -3 933.876 147.609  30
  -2  -4  -3 1180.56 130.131  29
   2   4   3 1047.86 161.181   7
   2   4   3 704.487 154.823   2
   2   4   3 964.706 173.869   4
   2   4   4 6257.14 476.142   4
   2   4   4 5697.25 415.951   7
  -2  -4  -4 6069.75 394.375  30
  -2  -4  -4 6063.54 320.592  29
   2   4   4 5069.12 399.786   2
  -2  -4  -5 18188.4 742.494  30
  -2  -4  -5 18609.3 623.072  29
   2   4   5 19285.8 911.758   4
   2   4   5 17644.6 808.907   7
   2   4   6 1006.41 79.9161  49
  -2  -4  -6 1219.44 197.256  30
   2   4   6 965.239 233.770   9
   2   4   6 1040.80 221.365   7
   2   4   6 1070.25 84.2629  36
   2   4   6 1105.76 66.8760  26
   2   4   6 1126.23 74.0429  22
   2   4   6 1035.58 215.087   4
   2   4   6 1038.71 79.8283  16
   2   4   7 5837.95 203.026  16
   2   4   7 6358.20 214.907  36
   2   4   7 6530.93 176.844  26
   2   4   7 5625.03 203.458  49
  -2  -4  -7 6609.42 193.299  46
   2   4   7 6578.18 194.908  22
   2   4   8 3117.92 120.911  26
   2   4   8 2721.54 137.230  16
   2   4   8 2805.04 143.562  49
   2   4   8 2662.86 121.261  24
   2   4   8 2918.51 147.441  36
   2   4   8 3203.84 136.712  22
  -2  -4  -8 2978.82 126.368  46
   2   4   9 232.265 34.9776  26
  -2  -4  -9 229.858 37.2041  38
   2   4   9 260.859 49.6227  36
  -2  -4  -9 176.359 30.1938  46
   2   4   9 243.721 45.8113  49
   2   4   9 247.550 43.0416  16
   2   4   9 279.340 40.4270  24
  -2  -4 -10 1304.96 80.6527  38
   2   4  10 1107.45 83.4150  49
   2   4  10 1219.92 82.8682  16
   2   4  10 1128.74 74.8824  24
   2   4  10 1278.08 73.7808  26
  -2  -4 -11 2076.61 90.1256  38
   2   4  11 2119.85 101.967  49
   2   4  11 2119.08 94.1324  24
   2   4  12 3018.05 96.8065  24
   2   4  12 3668.27 102.106  26
  -2  -5  17 384.698 27.5485  23
  -2  -5  17 428.303 34.1070  19
  -2  -5  16 170.256 28.0064  19
  -2  -5  16 108.940 19.7321  23
  -2  -5  15 144.570 25.6150  23
  -2  -5  15 99.2250 22.0336  19
  -2  -5  14 7.24554 23.1107  19
  -2  -5  14 56.8871 18.0606  23
  -2  -5  14 43.6234 23.9179  14
  -2  -5  13 24.3602 19.9632  19
  -2  -5  13-2.34720 22.0135  14
  -2  -5  13 14.6997 15.1563  23
  -2  -5  12 11169.6 280.946  14
  -2  -5  12 11125.2 248.097  23
  -2  -5  11 9403.42 243.689  19
  -2  -5  11 11002.0 273.653  14
  -2  -5  10 414.809 45.0020  19
  -2  -5  10 384.767 135.588   5
   2   5 -10 641.838 145.044  28
  -2  -5  10 548.659 56.0496  14
   2   5  -9 179.802 81.4202  28
   2   5  -9 89.8452 97.7311  31
  -2  -5   9 77.6146 48.2041   5
  -2  -5   8 99.4184 73.7671  34
  -2  -5   8 31.8228 49.7211   5
   2   5  -8 214.850 104.182  31
  -2  -5   8 108.257 59.1028  10
   2   5  -8 67.5287 64.1690   2
   2   5  -7 53278.4 1450.50   2
  -2  -5   7 52980.1 1421.75  34
  -2  -5   7 55996.5 1496.81  10
   2   5  -7 53234.4 1604.33  31
  -2  -5   6 550.542 129.003  34
   2   5  -6 423.668 147.553  31
   2   5  -6 487.436 144.090   2
  -2  -5   6 628.753 146.843  10
  -2  -5   5 33214.9 1033.36  10
   2   5  -5 31624.3 1200.79  31
  -2  -5   5 30873.1 972.899  34
   2   5  -5 30008.2 1201.31   2
  -2  -5   5 31256.6 861.150   1
  -2  -5   4 104843. 1976.78  34
  -2  -5   4 106859. 1993.71  10
   2   5  -4 116575. 2580.25  31
  -2  -5   4 108045. 1868.18   1
   2   5  -4 96907.7 2714.85   2
  -2  -5   3 25674.3 839.410  34
  -2  -5   3 24997.4 815.247  10
   2   5  -3 25874.2 1235.13  31
   2   5  -3 22514.9 579.371   4
   2   5  -3 22520.8 1575.45   2
   2   5  -2 6393.20 715.186  31
  -2  -5   2 5653.98 357.418  10
   2   5  -2 5398.91 300.073   4
   2   5  -2 6036.09 1048.01   2
  -2  -5   2 5838.55 379.940  34
   2   5  -1 208741. 4721.66  31
  -2  -5   1 209054. 2979.01  10
  -2  -5   1 213018. 3054.97  30
   2   5  -1 211396. 2979.21   4
  -2  -5   0 105.754 54.6836  34
  -2  -5   0 96.8327 60.6436  30
   2   5   0 110.876 139.692   2
   2   5   0 100.350 56.1870   4
  -2  -5  -1 4003.36 316.077  34
   2   5   1 4902.03 412.266  31
  -2  -5  -1 3823.37 306.133  30
   2   5   1 3466.89 312.787   4
   2   5   1 4204.77 457.689   2
  -2  -5  -2 1912.75 219.339  34
  -2  -5  -2 1772.37 216.203  30
   2   5   2 1882.02 246.798   4
   2   5   2 2073.24 285.601   2
  -2  -5  -3 26470.3 913.344  30
   2   5   3 26703.9 1025.32   2
   2   5   3 28781.9 1063.82   4
  -2  -5  -4 1748.07 236.198  30
   2   5   4 1554.04 244.836   2
   2   5   4 1683.50 265.157   4
   2   5   5 3420.64 148.577  36
   2   5   5 3148.96 143.777  49
   2   5   5 3367.98 118.088  26
  -2  -5  -5 3683.66 140.939  46
   2   5   5 3437.51 132.271  22
  -2  -5  -5 3590.73 135.986  38
   2   5   5 3064.56 142.144  16
   2   5   6 16946.7 379.687  16
  -2  -5  -6 18337.3 364.036  46
   2   5   6 16434.1 377.688  49
   2   5   6 18237.3 394.046  36
  -2  -5  -6 18822.3 365.009  38
   2   5   6 19260.0 334.131  26
   2   5   6 18020.3 356.564  22
  -2  -5  -7 19927.9 380.511  38
   2   5   7 17334.2 390.514  16
   2   5   7 19107.9 409.397  36
  -2  -5  -7 18678.9 369.959  46
   2   5   7 17003.7 391.713  49
   2   5   7 19881.0 345.761  26
   2   5   8 304.446 54.3137  36
   2   5   8 244.143 47.9980  49
  -2  -5  -8 245.150 38.3689  46
  -2  -5  -8 277.973 42.8244  38
   2   5   8 271.280 37.8841  26
   2   5   8 236.142 43.7032  16
  -2  -5  -9 317.483 37.9470  46
   2   5   9 328.280 45.4457  16
  -2  -5  -9 359.708 43.3940  38
   2   5   9 261.163 44.9762  49
   2   5   9 347.322 37.7322  26
   2   5  10 450.582 51.2254  49
   2   5  10 475.697 50.1238  16
   2   5  10 535.230 44.3635  26
  -2  -5 -10 454.307 43.8655  38
  -2  -5 -11 6713.92 151.862  38
   2   5  11 7053.20 161.781  16
   2   5  11 7112.10 174.596  49
  -2  -5 -12 825.210 44.8274  18
  -2  -6  17 30.6867 12.8800  19
  -2  -6  16 1116.78 63.3086  19
  -2  -6  16 1059.94 52.4141  23
  -2  -6  15-1.18151 22.1853  19
  -2  -6  15 37.5433 16.1969  23
  -2  -6  15 41.6543 21.9508  14
  -2  -6  14 11.3183 13.6173  23
  -2  -6  14 2.25510 17.0923  19
  -2  -6  14 11.3801 24.4350  14
  -2  -6  13 2186.89 112.291  19
  -2  -6  13 2412.15 124.020  14
  -2  -6  12 261.883 36.7878  19
  -2  -6  12 352.301 53.4161  14
  -2  -6  11 10635.9 264.565  19
  -2  -6  11 11822.2 289.083  14
  -2  -6  10 5991.58 186.222  19
  -2  -6  10 6544.25 204.970  14
   2   6  -9 3089.96 324.896  28
  -2  -6   9 3957.52 430.820  10
  -2  -6   8 72369.8 1819.61  34
  -2  -6   8 71127.1 1887.11  10
   2   6  -8 57240.5 2177.26  31
   2   6  -8 54099.4 2061.74   2
  -2  -6   7 20028.4 894.047  34
  -2  -6   7 19383.2 907.064  10
   2   6  -7 17354.8 1139.28  31
   2   6  -7 16031.5 1122.03   2
   2   6  -6 24319.2 1367.85  31
  -2  -6   6 26699.0 1031.35  10
  -2  -6   6 26709.3 1003.33  34
  -2  -6   5 104450. 2130.69  10
   2   6  -5 91862.7 2873.32  31
  -2  -6   5 94206.1 2010.32  34
  -2  -6   5 101840. 1926.07   1
   2   6  -4 485.916 343.645   2
  -2  -6   4 369.295 109.685  34
   2   6  -4 309.764 222.979  31
  -2  -6   4 406.763 114.099  10
  -2  -6   4 371.973 106.211   1
  -2  -6   3 3233.54 315.403  34
  -2  -6   3 3244.72 308.307  10
   2   6  -3 3318.80 588.732  31
   2   6  -3 4024.54 865.619   2
  -2  -6   2 15796.5 699.529  34
  -2  -6   2 14308.9 639.269  10
   2   6  -2 14986.0 565.364   4
   2   6  -2 14138.3 1146.29  31
   2   6  -2 14267.1 1349.37   2
  -2  -6   1 29399.0 970.608  34
   2   6  -1 31926.1 1527.59  31
   2   6  -1 28206.9 882.713   4
   2   6  -1 30426.4 1593.02   2
  -2  -6   0 15400.4 689.260  34
  -2  -6   0 14434.6 671.293  30
   2   6   0 16577.7 994.303   2
   2   6   0 15239.2 680.905   4
   2   6   1-20.7771 96.2831   2
  -2  -6  -1 65.4113 59.7008  30
   2   6   1 137.466 78.1841   4
  -2  -6  -1 79.0153 53.7856  34
  -2  -6  -2 25539.4 951.466  30
   2   6   2 25639.7 1019.74   4
   2   6   2 23717.0 1033.16   2
  -2  -6  -3 1108.11 201.468  30
   2   6   3 1171.42 224.631   2
   2   6   3 859.855 189.748   4
   2   6   4 1917.74 108.231  36
   2   6   4 1728.72 106.934  49
  -2  -6  -4 1916.90 103.492  46
  -2  -6  -4 1944.02 103.072  45
   2   6   4 1834.27 101.792  42
   2   6   4 1671.70 96.6652  44
  -2  -6  -4 1919.84 101.227  38
   2   6   4 1929.42 86.1724  26
   2   6   4 1756.01 107.669  16
  -2  -6  -5 223.567 38.1681  38
  -2  -6  -5 189.329 36.1190  45
   2   6   5 181.209 41.4301  36
  -2  -6  -5 198.949 39.4486  46
   2   6   5 245.735 45.6300  49
   2   6   5 293.771 48.2095  16
   2   6   5 296.697 37.6542  26
   2   6   6 1671.79 109.049  36
  -2  -6  -6 1642.40 101.603  46
  -2  -6  -6 1674.64 98.9049  38
   2   6   6 1804.98 89.3157  26
   2   6   6 1452.40 105.618  49
   2   6   6 1610.47 106.710  16
  -2  -6  -7 19430.3 381.099  38
   2   6   7 18787.9 399.908  16
  -2  -6  -7 18870.4 373.029  46
   2   6   7 18343.5 405.480  49
   2   6   8 805.555 71.8090  16
   2   6   8 783.675 73.7337  49
  -2  -6  -8 759.839 61.6632  46
   2   6   8 915.284 60.3153  26
  -2  -6  -8 795.791 64.5832  38
  -2  -6  -9 347.062 39.2830  38
  -2  -6  -9 329.315 35.1815  46
   2   6   9 468.524 49.7545  16
   2   6   9 435.228 51.1019  49
  -2  -6 -10 569.332 42.2774  38
   2   6  10 630.334 49.4112  16
   2   6  10 599.610 50.8728  49
  -2  -6 -11 687.015 42.7699  18
  -2  -7  17 259.778 25.2154  19
  -2  -7  16 295.727 33.5101  19
  -2  -7  15 243.415 33.5062  19
  -2  -7  15 284.187 40.6043  14
  -2  -7  14 1830.52 97.1304  19
  -2  -7  14 1816.96 100.601  14
  -2  -7  13 674.956 62.1160  19
  -2  -7  13 736.258 71.6827  14
  -2  -7  12 2212.16 114.392  19
  -2  -7  12 2355.45 123.359  14
  -2  -7  11 832.312 73.9342  19
  -2  -7  11 1038.75 88.4434  14
  -2  -7  10 86367.8 1130.06  19
  -2  -7  10 88023.7 1152.49  14
  -2  -7   9 2185.86 111.544  19
  -2  -7   9 2325.60 116.923  14
  -2  -7   9 2469.07 112.454  27
  -2  -7   8 9131.49 650.937  34
  -2  -7   8 10202.9 722.532  10
  -2  -7   7 8531.66 617.864  34
  -2  -7   7 8537.90 636.861  10
  -2  -7   6 64727.2 1737.83  34
  -2  -7   6 67475.6 1815.79  10
   2   7  -6 49664.1 2410.98  31
  -2  -7   5 6081.83 491.589  34
   2   7  -5 4482.08 834.924   2
  -2  -7   5 7930.21 564.217  10
   2   7  -5 5340.33 771.597  31
  -2  -7   5 6871.29 485.749   1
  -2  -7   4 324.031 113.061   1
   2   7  -4 553.640 352.538   2
  -2  -7   4 205.400 102.841  34
   2   7  -4 250.774 231.611  31
  -2  -7   4 91.8342 66.2209  10
  -2  -7   3 8627.69 564.769  34
  -2  -7   3 8938.19 557.659  10
   2   7  -3 7887.56 875.812  31
   2   7  -3 9676.26 1018.57   2
  -2  -7   3 10852.9 629.236   1
  -2  -7   2 16415.3 786.756  34
   2   7  -2 19916.9 1268.19   2
   2   7  -2 19028.7 1173.55  31
   2   7  -1 641.543 200.367   2
   2   7  -1 317.842 97.3230   4
   2   7  -1 577.535 189.891  31
  -2  -7   1 284.628 99.0882  34
  -2  -7   0 3415.34 347.268  34
   2   7   0 3817.80 382.406  31
   2   7   0 2894.41 316.258   4
   2   7   0 3417.73 421.216   2
   2   7   1 6554.23 569.561   2
   2   7   1 6859.59 518.678   4
   2   7   2 10689.5 278.936  49
   2   7   2 11088.3 278.915  16
   2   7   2 11353.7 278.962  42
  -2  -7  -2 10733.0 254.311  11
  -2  -7  -2 10920.3 266.097  46
  -2  -7  -2 11072.7 271.994  45
   2   7   2 10635.9 267.518  44
  -2  -7  -2 10857.3 261.913  38
  -2  -7  -3 12664.9 295.604  46
   2   7   3 12821.4 292.459  36
   2   7   3 12734.5 299.833  42
   2   7   3 12549.4 309.073  16
  -2  -7  -3 12444.6 296.442  45
   2   7   3 11616.4 285.567  44
   2   7   3 11736.3 301.691  49
  -2  -7  -3 12613.7 292.060  38
   2   7   4 10282.0 282.286  16
   2   7   4 10966.6 273.667  36
   2   7   4 9575.03 256.621  44
  -2  -7  -4 10683.6 267.208  38
   2   7   4 10068.8 260.303  42
   2   7   4 9627.28 274.226  49
  -2  -7  -4 10007.0 260.556  45
  -2  -7  -4 10727.6 272.984  46
   2   7   5 5557.87 188.260  44
   2   7   5 6124.53 211.548  16
   2   7   5 5624.65 181.166  42
  -2  -7  -5 6098.96 198.665  46
   2   7   5 5547.78 204.623  49
  -2  -7  -5 6054.06 195.306  38
  -2  -7  -5 5797.33 186.203  45
  -2  -7  -6 3935.73 152.675  38
  -2  -7  -6 4066.84 156.719  46
   2   7   6 4346.71 172.711  16
   2   7   6 4206.01 174.510  49
   2   7   7 5379.01 184.866  16
  -2  -7  -7 5069.85 166.694  46
   2   7   7 5176.14 188.317  49
  -2  -7  -7 5252.41 170.090  38
   2   7   8 7802.45 208.068  16
  -2  -7  -8 7462.15 192.011  38
   2   7   8 7640.22 214.571  49
  -2  -7  -8 7037.90 180.605  46
  -2  -7  -9 610.819 44.8126  38
   2   7   9 613.346 51.7053  49
  -2  -7  -9 654.125 50.9674  18
   2   7   9 636.862 49.9294  16
  -2  -7 -10 455.553 34.6576  18
  -2  -8  16 1008.25 55.4351  19
  -2  -8  15 642.783 51.0399  19
  -2  -8  15 636.330 52.9593  14
  -2  -8  14 319.998 40.5989  19
  -2  -8  14 336.035 44.6921  14
  -2  -8  13 2321.26 112.926  19
  -2  -8  13 2497.61 122.791  14
  -2  -8  12 1455.51 92.0658  19
  -2  -8  12 1312.48 91.7876  14
  -2  -8  11 6522.34 207.852  14
  -2  -8  11 6146.31 198.993  19
  -2  -8  10 3743.69 152.306  19
  -2  -8  10 3690.30 154.876  14
  -2  -8   9 1356.77 89.4224  19
  -2  -8   9 1318.43 85.2455  17
  -2  -8   9 1348.19 91.4927  14
  -2  -8   8 1693.34 98.7696  19
  -2  -8   8 1635.93 95.0331  17
  -2  -8   8 1683.90 98.6229  14
  -2  -8   7 5936.14 191.005  19
  -2  -8   7 6275.25 191.612  17
  -2  -8   7 6246.83 188.005  14
  -2  -8   7 6004.50 183.505  11
   2   8  -6 179.843 226.860  31
  -2  -8   6 135.162 85.8630  10
  -2  -8   6 56.6023 23.5564  17
  -2  -8   6 73.2760 79.8476  34
  -2  -8   5 8600.68 633.523  34
  -2  -8   5 9307.85 649.445  10
   2   8  -5 7700.35 865.783  31
  -2  -8   5 8773.70 230.666  17
   2   8  -5 7923.20 893.574   2
  -2  -8   4 6566.84 544.208  34
  -2  -8   4 7844.24 573.928   1
  -2  -8   4 6401.48 520.374  10
   2   8  -4 8073.13 841.315   2
   2   8  -4 8774.77 855.100  31
   2   8  -3 1936.25 387.978   2
  -2  -8   3 1845.26 282.672  34
  -2  -8   3 2224.94 111.884  11
   2   8  -3 2024.31 385.673  31
  -2  -8   3 1829.89 281.751   1
  -2  -8   2 4374.40 432.250  34
  -2  -8   2 4359.00 159.482  11
   2   8  -2 5056.02 525.230  31
  -2  -8   2 4418.96 157.896  17
  -2  -8   2 4301.30 157.642  46
   2   8  -2 5479.41 592.248   2
  -2  -8   2 4365.15 160.907  45
   2   8  -2 4667.04 164.519  42
  -2  -8   2 4878.44 467.153   1
  -2  -8   2 4392.99 159.352  38
  -2  -8   1 1598.93 93.5387  38
  -2  -8   1 1521.29 251.081  34
   2   8  -1 1569.45 258.434  31
  -2  -8   1 1626.93 92.7071  17
   2   8  -1 1694.14 99.0885  42
  -2  -8   1 1629.30 97.8457  45
  -2  -8   1 1480.05 90.7500  46
  -2  -8   1 1639.69 96.7457  11
   2   8  -1 1862.19 119.107  44
   2   8  -1 1555.98 97.6001  49
  -2  -8   0 3163.89 136.103  11
  -2  -8   0 2954.96 133.183  46
  -2  -8   0 3068.68 129.025  18
  -2  -8   0 3652.47 136.218  17
   2   8   0 3101.91 131.715  16
   2   8   0 3795.63 151.726  42
  -2  -8   0 2973.41 135.961  45
  -2  -8   0 2980.68 131.620  38
   2   8   0 3159.76 148.004  44
   2   8   0 2772.92 132.468  49
  -2  -8  -1 1161.05 81.3202  38
  -2  -8  -1 1162.21 81.5499  11
   2   8   1 1343.04 93.3573  44
  -2  -8  -1 1211.47 81.9044  18
  -2  -8  -1 1132.38 82.2056  46
  -2  -8  -1 1250.86 87.9501  45
   2   8   1 1187.71 83.7431  16
   2   8   1 1172.17 85.7348  49
   2   8   1 1173.59 87.0329  42
   2   8   2 1677.63 103.374  42
  -2  -8  -2 1620.89 99.6363  46
  -2  -8  -2 1796.89 101.295  18
   2   8   2 1591.27 101.248  44
  -2  -8  -2 1587.65 92.4342  11
  -2  -8  -2 1679.07 103.947  45
   2   8   2 1737.17 105.474  16
   2   8   2 1651.51 105.077  49
  -2  -8  -3 1952.07 108.974  38
   2   8   3 1915.06 114.267  49
  -2  -8  -3 2074.17 109.658  18
   2   8   3 1907.84 113.700  16
  -2  -8  -3 2008.20 111.191  45
  -2  -8  -3 1864.46 108.730  46
   2   8   3 1928.48 108.770  42
   2   8   3 1595.81 101.032  44
  -2  -8  -4 1122.82 81.8787  38
   2   8   4 936.479 82.1269  49
  -2  -8  -4 1209.39 82.3241  18
   2   8   4 1179.98 90.1829  16
  -2  -8  -4 1098.74 83.5847  46
  -2  -8  -4 1056.59 77.9247  45
   2   8   4 1060.88 81.3393  44
   2   8   4 1000.70 75.6429  42
  -2  -8  -5 7816.59 216.805  18
   2   8   5 7897.09 230.916  16
   2   8   5 7687.74 234.312  49
   2   8   5 6873.29 208.315  44
  -2  -8  -5 7091.67 198.575  45
  -2  -8  -5 7508.99 219.171  46
   2   8   5 7210.73 201.128  42
  -2  -8  -5 7506.30 215.388  38
  -2  -8  -6 445.609 51.0759  18
   2   8   6 499.409 55.3237  16
  -2  -8  -6 466.694 50.6604  38
  -2  -8  -6 478.060 52.1688  46
   2   8   6 469.070 57.9738  49
  -2  -8  -7 596.298 50.5728  38
  -2  -8  -7 661.265 54.9656  18
   2   8   7 676.950 58.6406  16
   2   8   7 603.066 57.7205  49
  -2  -8  -7 566.299 48.7881  46
  -2  -8  -8 113.593 20.1192  46
  -2  -8  -8 127.683 23.9506  18
   2   8   8 109.692 23.8747  49
   2   8   8 122.255 25.3666  16
  -2  -8  -8 115.567 20.6070  38
  -2  -9  16 635.361 40.1185  19
  -2  -9  15 165.321 25.5925  19
  -2  -9  14 432.675 44.0440  19
  -2  -9  14 454.851 48.1962  14
  -2  -9  13 69.1783 21.9148  19
  -2  -9  13 55.1599 24.1848  14
  -2  -9  12 1.51189 18.8234  19
  -2  -9  12 14.2567 22.3146  14
  -2  -9  11 235.046 39.4432  19
  -2  -9  11 223.104 40.4060  14
  -2  -9  10 3515.80 148.676  19
  -2  -9  10 3647.09 142.237  17
  -2  -9  10 3690.79 149.554  14
  -2  -9   9 63.0714 28.9520  19
  -2  -9   9 11.7549 18.2947  17
  -2  -9   9 50.5024 31.7370  14
  -2  -9   8 17496.3 368.155  19
  -2  -9   8 17779.6 364.890  17
  -2  -9   8 17799.3 357.653  14
  -2  -9   7 913.203 75.2153  11
  -2  -9   7 865.319 75.1707  17
  -2  -9   7 867.967 74.2749  19
  -2  -9   6 31064.1 522.387  11
  -2  -9   6 31655.8 530.814  17
  -2  -9   6 30696.7 530.033  38
  -2  -9   5 306.180 47.3240  45
   2   9  -5 248.217 36.0790  42
  -2  -9   5 250.165 40.5420  38
  -2  -9   5 289.527 44.6724  11
  -2  -9   5 304.680 48.4313  17
  -2  -9   5 307.435 44.8542  46
  -2  -9   4 150.364 28.5695  38
  -2  -9   4 208.340 38.9938  11
  -2  -9   4 184.617 34.2544  46
  -2  -9   4 198.768 37.5266  17
   2   9  -4 248.925 37.6494  42
  -2  -9   4 173.353 33.9298  45
  -2  -9   3 1051.90 81.1484  11
  -2  -9   3 1159.07 85.5447  17
  -2  -9   3 1085.36 82.9045  45
  -2  -9   3 1208.25 84.9401  46
   2   9  -3 1146.86 81.0504  42
  -2  -9   3 1167.45 85.0654  38
   2   9  -2 2056.98 123.355  44
  -2  -9   2 1768.93 106.018  11
  -2  -9   2 1811.77 103.383  17
  -2  -9   2 1782.27 103.878  46
  -2  -9   2 1785.67 105.936  45
   2   9  -2 1850.13 104.623  42
  -2  -9   2 1673.15 102.614  38
  -2  -9   1 17100.7 352.094  17
  -2  -9   1 17625.9 377.625  45
  -2  -9   1 18295.4 380.104  11
   2   9  -1 18959.1 396.949  44
  -2  -9   1 17684.6 374.464  46
   2   9  -1 18596.6 377.129  42
  -2  -9   1 17182.5 372.899  38
   2   9   0 1342.09 89.5924  49
  -2  -9   0 1364.38 91.3771  11
  -2  -9   0 1478.64 90.9222  18
   2   9   0 1384.15 95.6764  44
   2   9   0 1311.11 90.8968  42
  -2  -9   0 1305.56 89.8131  38
  -2  -9   0 1375.34 96.6079  45
  -2  -9   0 1297.81 90.1710  46
  -2  -9  -1 3775.26 156.403  38
  -2  -9  -1 3952.68 158.979  46
  -2  -9  -1 3852.59 149.222  18
  -2  -9  -1 3878.49 150.878  11
   2   9   1 3631.73 146.916  16
   2   9   1 3521.79 152.645  44
  -2  -9  -1 3582.28 156.082  45
   2   9   1 3736.73 154.189  49
   2   9   1 3764.74 155.906  42
  -2  -9  -2 2949.69 133.794  38
   2   9   2 2906.57 137.254  49
  -2  -9  -2 2816.11 121.412  11
  -2  -9  -2 2965.42 129.998  18
   2   9   2 2929.31 132.203  16
  -2  -9  -2 2956.52 136.923  45
  -2  -9  -2 2917.26 136.865  46
   2   9   2 2767.11 134.613  44
   2   9   2 3214.63 140.613  42
  -2  -9  -3 136.223 28.1326  38
  -2  -9  -3 122.874 27.4083  18
  -2  -9  -3 123.353 29.8000  46
   2   9   3 136.152 32.1159  16
  -2  -9  -3 137.939 30.7973  45
   2   9   3 131.172 32.5195  44
   2   9   3 90.4923 24.4549  42
   2   9   3 145.201 35.8202  49
  -2  -9  -4 1283.80 85.1097  46
   2   9   4 1397.84 84.5254  42
  -2  -9  -4 1312.42 81.5568  18
   2   9   4 1273.81 83.7048  16
  -2  -9  -4 1247.25 78.7437  45
   2   9   4 1434.73 94.9620  49
   2   9   4 1327.41 87.1915  44
  -2  -9  -4 1283.56 85.1124  38
  -2  -9  -5 2522.59 107.972  18
   2   9   5 2628.58 112.948  16
   2   9   5 2516.07 117.881  49
  -2  -9  -5 2554.76 112.448  46
   2   9   5 2443.21 108.583  44
   2   9   5 2474.51 100.791  42
  -2  -9  -5 2514.59 110.485  38
  -2  -9  -6 143.251 26.8318  18
   2   9   6 152.376 26.6672  16
  -2  -9  -6 121.367 25.0449  38
  -2  -9  -6 184.095 29.0869  46
   2   9   6 147.737 28.4522  49
   2   9   7 231.619 27.6270  25
  -2  -9  -7 239.955 26.0868  38
  -2  -9  -7 214.378 26.4376  18
   2   9   7 244.449 27.9321  16
   2   9   7 187.561 26.2054  49
  -2 -10  15 31.1499 11.8958  19
  -2 -10  14 68.0114 18.5157  19
  -2 -10  13 6.05646 14.6144  19
  -2 -10  13-4.01549 19.3286  14
  -2 -10  12 0.07397 14.8982  19
  -2 -10  12 8.75017 22.0719  14
  -2 -10  11 1480.92 89.7983  19
  -2 -10  11 1439.51 88.6389  14
  -2 -10  10 7337.64 212.604  19
  -2 -10  10 6835.12 201.169  17
  -2 -10  10 7227.40 205.511  14
  -2 -10   9 3466.95 145.488  19
  -2 -10   9 3621.04 146.124  17
  -2 -10   9 3488.20 137.385  14
  -2 -10   8 2242.54 113.421  11
  -2 -10   8 2166.58 114.540  19
  -2 -10   8 2311.13 119.916  17
  -2 -10   8 2161.23 110.181  13
  -2 -10   7 23523.6 439.399  19
  -2 -10   7 24801.5 460.127  17
  -2 -10   7 24966.7 451.085  11
  -2 -10   7 25195.1 450.915  13
  -2 -10   6 12983.3 306.194  11
  -2 -10   6 13242.1 311.984  17
  -2 -10   6 13252.5 311.069  38
  -2 -10   5 33012.6 559.252  11
  -2 -10   5 33081.1 563.741  17
   2  10  -5 31881.5 513.268  42
  -2 -10   5 31540.6 544.654  46
  -2 -10   5 32515.5 562.589  38
   2  10  -4 626.182 58.6761  42
  -2 -10   4 486.513 56.7110  17
  -2 -10   4 429.758 54.1838  11
  -2 -10   4 418.673 53.2357  45
   2  10  -4 510.159 62.7623  44
  -2 -10   4 424.829 53.9165  46
  -2 -10   4 445.623 55.0983  38
  -2 -10   3 9.75851 19.6642  38
   2  10  -3 25.5445 22.1058  44
  -2 -10   3 22.4856 19.1442  11
  -2 -10   3 76.4166 25.2170  45
  -2 -10   3 23.3269 20.6508  17
  -2 -10   3 28.0087 20.5361  46
   2  10  -3 29.6524 18.8140  42
  -2 -10   2 1976.84 106.702  17
  -2 -10   2 1975.03 112.803  11
  -2 -10   2 1765.52 107.614  45
   2  10  -2 1759.47 106.989  44
   2  10  -2 1881.09 105.930  42
  -2 -10   2 1958.66 110.301  46
  -2 -10   2 1923.42 110.401  38
  -2 -10   1 3096.47 141.976  45
  -2 -10   1 3051.93 139.105  46
  -2 -10   1 3202.82 141.956  11
  -2 -10   1 2935.73 126.867  17
   2  10  -1 3097.07 140.691  44
   2  10  -1 3070.09 140.314  42
  -2 -10   1 3010.19 140.100  38
   2  10   0 14.4858 22.3470  42
  -2 -10   0 4.13889 20.1462  45
  -2 -10   0 33.0990 17.8303  18
  -2 -10   0 35.9987 18.6360  46
  -2 -10   0 30.5899 17.3088  38
   2  10   0 33.2407 19.7548  41
   2  10   0 28.2303 16.6702  49
  -2 -10   0 33.8224 24.1093  11
   2  10   0 57.0792 26.2216  44
  -2 -10  -1 440.319 52.6985  46
  -2 -10  -1 444.041 49.3678  11
  -2 -10  -1 451.610 48.3343  18
   2  10   1 468.434 46.6457  16
   2  10   1 550.121 57.4764  44
   2  10   1 495.850 54.5805  42
  -2 -10  -1 493.087 55.2338  45
   2  10   1 497.823 49.1611  41
   2  10   1 457.793 51.1476  49
  -2 -10  -1 463.726 53.2925  38
  -2 -10  -2 1833.51 94.8812  18
   2  10   2 1829.44 92.1911  16
   2  10   2 1767.70 98.0264  49
  -2 -10  -2 1921.82 102.903  45
  -2 -10  -2 1894.07 105.295  46
   2  10   2 1901.99 105.337  44
   2  10   2 1954.54 101.383  42
  -2 -10  -2 1885.23 102.765  38
  -2 -10  -3 1485.74 80.9587  18
   2  10   3 1441.50 78.8228  16
   2  10   3 1545.79 87.3689  49
   2  10   3 1569.26 84.9624  42
  -2 -10  -3 1488.07 86.7374  46
  -2 -10  -3 1436.25 81.3152  45
   2  10   3 1483.95 87.7972  44
  -2 -10  -3 1500.14 85.8424  38
  -2 -10  -4 537.280 46.2225  18
   2  10   4 638.532 53.4254  49
   2  10   4 608.604 48.5759  16
  -2 -10  -4 547.889 49.1804  46
   2  10   4 589.283 50.5533  44
   2  10   4 559.024 45.5813  42
  -2 -10  -4 550.915 48.8175  38
  -2 -10  -5 27.6604 15.6001  38
  -2 -10  -5 40.3035 14.9884  18
  -2 -10  -5 29.8669 15.7132  46
   2  10   5 13.5655 11.8648  16
   2  10   5 41.2956 15.0400  25
   2  10   5 42.8085 15.3023  44
   2  10   5 37.1379 14.6414  49
  -2 -11  14 174.905 22.4138  19
  -2 -11  13-5.03322 10.2602  19
  -2 -11  12 231.892 31.9129  19
  -2 -11  12 220.151 31.0739  14
  -2 -11  11 5525.81 162.466  19
  -2 -11  11 5578.49 158.596  17
  -2 -11  11 5753.50 160.991  14
  -2 -11  10 13.5957 19.6349  17
  -2 -11  10 37.5933 20.6726  19
  -2 -11  10 31.4272 20.5341  14
  -2 -11   9 8937.20 225.183  19
  -2 -11   9 9134.45 221.437  11
  -2 -11   9 9098.11 234.764  17
  -2 -11   9 9187.42 221.328  13
  -2 -11   8 783.912 64.1168  11
  -2 -11   8 685.216 59.6197  19
  -2 -11   8 776.679 69.6557  17
  -2 -11   8 813.290 64.7696  13
  -2 -11   7 875.634 70.0638  11
  -2 -11   7 813.474 64.0385  19
  -2 -11   7 838.343 71.2143  17
   2  11  -7 874.277 66.8384  44
  -2 -11   7 881.631 71.3711  13
  -2 -11   7 911.527 71.6064  38
  -2 -11   6 10081.2 255.928  17
  -2 -11   6 9823.94 254.236  11
  -2 -11   6 9783.12 251.741  13
   2  11  -6 9785.69 245.883  44
  -2 -11   6 9815.39 254.505  38
  -2 -11   5 9505.96 254.053  11
  -2 -11   5 9868.49 253.140  17
  -2 -11   5 9132.24 243.234  46
   2  11  -5 9472.00 243.718  44
   2  11  -5 8907.37 219.421  42
  -2 -11   5 9337.29 246.596  13
  -2 -11   5 9552.41 254.294  38
  -2 -11   4 117.396 31.2329  38
  -2 -11   4 71.7809 31.4309  11
  -2 -11   4 94.1020 31.9891  17
   2  11  -4 42.8079 22.5029  44
  -2 -11   4 109.973 31.2975  46
   2  11  -4 104.884 28.7096  42
  -2 -11   3 301.783 45.2019  11
  -2 -11   3 327.627 44.4372  38
  -2 -11   3 282.091 42.4768  17
  -2 -11   3 296.647 43.9600  46
   2  11  -3 323.021 45.1891  44
   2  11  -3 302.767 41.7992  42
  -2 -11   2 567.257 60.0450  11
  -2 -11   2 503.774 55.0014  38
  -2 -11   2 476.629 50.6871  17
   2  11  -2 510.858 53.5930  44
   2  11  -2 587.197 56.3851  42
   2  11  -2 511.654 53.9511  41
  -2 -11   2 462.210 55.6539  46
  -2 -11   1 490.271 51.8585  11
  -2 -11   1 516.478 53.5396  46
   2  11  -1 434.522 48.8548  44
   2  11  -1 500.359 49.7562  41
   2  11  -1 486.717 50.3109  42
  -2 -11   1 445.351 51.4018  38
   2  11   0 1556.38 91.1087  44
  -2 -11   0 1532.46 85.0304  11
  -2 -11   0 1495.07 80.0569  18
   2  11   0 1458.29 80.6927  41
   2  11   0 1499.75 86.7392  42
  -2 -11   0 1470.49 87.5234  46
  -2 -11   0 1473.00 86.9845  38
  -2 -11  -1 1662.43 79.3513  11
  -2 -11  -1 1706.51 82.7432  18
  -2 -11  -1 1649.45 82.9543  13
  -2 -11  -1 1706.53 91.3753  46
   2  11   1 1657.76 78.6377  41
   2  11   1 1713.15 91.9212  44
   2  11   1 1702.58 87.6339  42
  -2 -11  -1 1646.56 89.2615  38
  -2 -11  -2 5680.49 149.784  18
   2  11   2 5653.20 137.949  16
   2  11   2 5634.17 146.813  49
  -2 -11  -2 6018.16 167.290  46
   2  11   2 6227.23 172.210  44
  -2 -11  -2 5962.71 164.471  38
   2  11   2 6213.94 163.179  42
  -2 -11  -2 5835.14 144.144  13
  -2 -11  -3 144.904 23.9009  38
  -2 -11  -3 133.606 22.0152  18
   2  11   3 131.269 18.2670  25
   2  11   3 141.845 21.1217  49
  -2 -11  -3 146.929 25.4407  46
   2  11   3 160.094 26.3508  44
   2  11   3 146.967 22.4970  42
  -2 -11  -4 0.41881 8.86770  38
  -2 -12  12 886.973 48.5545  19
  -2 -12  11 2217.53 84.7816  19
  -2 -12  10 2288.03 90.4776  19
  -2 -12  10 2539.93 99.2064  17
  -2 -12   9 6354.71 163.716  11
  -2 -12   9 6425.18 174.850  17
   2  12  -9 5994.36 150.304  41
  -2 -12   9 5889.51 155.865  19
  -2 -12   9 6267.52 162.074  13
  -2 -12   8 112.505 24.1118  19
  -2 -12   8 90.4132 25.2799  11
  -2 -12   8 170.090 31.0779  17
   2  12  -8 121.538 25.4789  41
  -2 -12   8 141.152 27.7999  13
  -2 -12   7 100.900 22.4953  19
  -2 -12   7 125.899 26.2217  38
  -2 -12   7 160.636 30.9722  11
  -2 -12   7 153.577 31.1422  17
   2  12  -7 66.4603 18.1238  44
  -2 -12   7 113.887 25.8777  13
  -2 -12   6 4785.81 149.509  46
  -2 -12   6 4845.33 157.944  11
  -2 -12   6 4927.67 158.332  17
   2  12  -6 4563.97 141.785  44
  -2 -12   6 4917.91 158.914  13
  -2 -12   6 4696.91 154.895  38
  -2 -12   5 347.771 41.4469  46
  -2 -12   5 372.492 45.3259  11
  -2 -12   5 365.595 43.4952  17
   2  12  -5 362.411 42.9435  41
   2  12  -5 338.103 39.0036  44
   2  12  -5 303.635 34.8729  42
  -2 -12   5 343.556 45.6122  13
  -2 -12   5 401.079 47.3859  38
  -2 -12   4 1126.81 72.8710  17
   2  12  -4 1212.82 73.9032  41
  -2 -12   4 1273.23 80.1435  11
  -2 -12   4 1197.16 76.1093  13
  -2 -12   4 1148.87 74.5310  46
   2  12  -4 1110.18 70.1088  44
   2  12  -4 1174.61 68.9407  42
  -2 -12   4 1166.44 76.5711  38
  -2 -12   3 2085.20 99.7776  11
   2  12  -3 2060.20 93.4484  41
  -2 -12   3 2150.85 96.5255  17
  -2 -12   3 2158.04 100.140  46
   2  12  -3 2017.25 95.7051  44
   2  12  -3 2111.85 94.8647  42
  -2 -12   3 2109.78 98.6206  13
  -2 -12   3 2138.21 101.804  38
  -2 -12   2 407.111 37.8395  17
   2  12  -2 383.369 40.1752  41
  -2 -12   2 386.266 41.8017  46
   2  12  -2 397.159 41.8722  44
  -2 -12   2 353.814 40.7694  11
   2  12  -2 422.533 41.6479  42
  -2 -12   2 411.437 43.1345  13
  -2 -12   2 334.160 40.5188  38
  -2 -12   1 30.4837 14.7556  38
  -2 -12   1 39.2135 16.2188  13
  -2 -12   1 40.8067 17.4681  46
   2  12  -1 25.9346 16.2650  44
  -2 -12   1 35.1439 18.3448  11
   2  12  -1 34.5508 15.2484  42
   2  12  -1 25.1284 14.3949  41
  -2 -12   0 197.819 27.6915  38
   2  12   0 216.439 25.5871  41
  -2 -12   0 199.994 25.5585  11
  -2 -12   0 226.133 30.3466  46
   2  12   0 213.302 28.1360  42
   2  12   0 240.327 31.5645  44
  -2 -12   0 213.973 26.9296  13
  -2 -12  -1 2901.12 98.0690  46
   2  12   1 3152.49 103.157  44
   2  12   1 3062.92 96.2400  42
  -2 -12  -1 2954.76 98.7659  38
  -2 -13   9 114.177 20.3935  17
  -2 -13   9 134.238 20.5460  13
   2  13  -9 112.772 16.9268  41
  -2 -13   8 518.645 40.0742  11
  -2 -13   8 577.611 44.2933  17
   2  13  -8 531.130 37.7684  41
  -2 -13   8 571.868 41.7584  13
  -2 -13   7 5362.48 141.613  11
  -2 -13   7 5634.10 146.302  17
  -2 -13   7 5380.57 140.480  13
   2  13  -7 5350.94 135.583  41
  -2 -13   6 432.845 40.0680  11
  -2 -13   6 439.801 40.7512  17
   2  13  -6 418.985 34.4915  44
  -2 -13   6 484.713 41.3744  13
   2  13  -6 454.903 38.3199  41
  -2 -13   6 472.161 39.4495  38
  -2 -13   5 228.665 29.7636  11
  -2 -13   5 312.534 33.6974  17
  -2 -13   5 256.037 29.4969  46
  -2 -13   5 279.481 32.2233  13
   2  13  -5 299.900 30.5320  44
   2  13  -5 229.391 23.6051  42
   2  13  -5 254.582 30.5521  41
  -2 -13   5 268.549 30.9956  38
   2  13  -4 843.427 47.1637  42
  -2 -13   4 820.857 52.4558  11
  -2 -13   4 884.111 50.4928  17
  -2 -13   4 894.636 54.1842  13
   2  13  -4 847.004 50.8739  44
  -2 -13   4 850.402 51.6289  46
   2  13  -4 841.632 50.9181  41
  -2 -13   4 879.434 53.7957  38
  -2 -13   3 191.045 26.1566  38
  -2 -13   3 221.408 27.5970  11
  -2 -13   3 202.861 26.3722  13
  -2 -13   3 186.431 25.1959  46
   2  13  -3 208.132 26.6458  44
   2  13  -3 243.392 25.8268  42
   2  13  -3 180.678 23.4977  41
  -2 -13   2 460.809 34.2059  11
  -2 -13   2 414.187 33.2055  46
   2  13  -2 408.262 33.7666  44
   2  13  -2 435.842 33.0208  42
   2  13  -2 399.819 30.6493  41
  -2 -13   2 442.551 33.8511  13
  -2 -13   2 435.218 35.0707  38
   3 -13   1 2425.30 87.9859  18
  -3  13  -1 2542.60 83.0819  42
  -3  13  -1 2469.02 85.0508  41
   3 -13   2 1039.60 60.3023  18
  -3  13  -2 1067.34 57.9946  41
  -3  13  -2 1079.21 54.2722  42
  -3  13  -2 1095.45 52.1138  20
  -3  13  -3 123.405 20.2036  41
  -3  13  -3 136.843 21.0049  20
  -3  13  -3 113.107 18.0800  42
   3 -13   3 129.481 22.5536  18
   3 -13   3 112.040 19.1980  13
   3 -13   4 2258.26 94.1545  18
  -3  13  -4 2357.30 87.9743  20
  -3  13  -4 2421.22 88.9891  41
  -3  13  -4 2221.47 77.5241  42
   3 -13   4 2193.14 83.9020  13
  -3  13  -5 70.8151 16.8710  20
   3 -13   5 59.4727 17.3632  18
  -3  13  -5 53.4133 13.6984  43
  -3  13  -5 92.1041 18.6586  41
   3 -13   5 62.0404 16.9983  13
   3 -13   6 3368.83 117.629  18
   3 -13   6 3203.71 104.945  19
  -3  13  -6 3278.52 97.8402  43
   3 -13   6 3483.94 112.626  13
  -3  13  -7 24.4064 14.2188  20
   3 -13   7 32.3189 14.5732  19
   3 -13   7 48.8178 16.7564  18
   3 -13   7 36.1256 15.2453  13
  -3  13  -7 42.9976 14.8890  43
   3 -13   8 747.092 45.6774  19
   3 -13   8 783.019 52.1850  18
  -3  13  -8 814.146 46.4670  20
  -3  13  -8 786.466 45.5077  43
   3 -13   8 737.291 49.8643  13
   3 -13   9 1350.36 57.0402  19
   3 -13   9 1357.52 61.6020  12
  -3  13  -9 1444.24 59.6751  43
  -3  13  -9 1362.43 53.7540  20
  -3  13 -10 141.149 18.1321  43
   3 -12  -2 385.406 34.8245  37
   3 -12  -2 453.566 37.8861  18
  -3  12   2 445.471 36.5158  42
  -3  12   2 418.674 34.0612  44
  -3  12   2 416.810 33.9905  41
   3 -12  -1 444.742 40.1814  37
   3 -12  -1 390.640 39.9117  18
  -3  12   1 406.496 38.3476  41
  -3  12   1 364.011 29.0903  25
  -3  12   1 457.453 40.2357  42
  -3  12   1 432.946 37.1157  44
  -3  12   0 50.6699 18.3141  42
   3 -12   0 70.2374 21.2956  18
  -3  12   0 53.2074 14.9956  44
  -3  12   0 60.6594 20.1639  41
   3 -12   0 58.3252 20.0231  37
  -3  12  -1 397.531 41.9179  42
  -3  12  -1 371.216 35.8623  20
   3 -12   1 407.322 44.7024  18
   3 -12   1 407.071 42.1575  37
   3 -12   1 338.552 35.7192  38
  -3  12  -1 389.009 41.8889  41
   3 -12   2 96.4209 24.6469  18
  -3  12  -2 81.9464 19.8379  42
   3 -12   2 73.1867 20.3415  37
  -3  12  -2 90.6989 24.2600  41
  -3  12  -2 48.8374 15.3754  20
   3 -12   2 50.8256 16.6481  13
   3 -12   2 57.9351 17.1036  38
   3 -12   3 28.5736 16.5541  37
  -3  12  -3-7.81730 16.5262  20
   3 -12   3-13.9936 22.0120  18
  -3  12  -3 2.59102 14.3453  41
  -3  12  -3 25.4598 14.6085  42
   3 -12   3 6.97417 16.2627  13
   3 -12   3-17.7922 21.4367  38
   3 -12   4 141.532 26.1892  37
  -3  12  -4 117.243 25.1984  20
   3 -12   4 79.9788 22.4505  18
  -3  12  -4 103.943 22.3134  42
  -3  12  -4 127.045 23.4628  43
  -3  12  -4 145.220 27.4663  41
   3 -12   4 202.189 31.5636  13
   3 -12   5 465.123 52.1579  18
  -3  12  -5 509.746 46.8078  41
  -3  12  -5 521.182 49.2858  20
   3 -12   5 477.652 48.1000  13
  -3  12  -5 488.481 43.2322  43
   3 -12   6 374.266 46.2501  13
   3 -12   6 413.007 48.5391  18
  -3  12  -6 365.295 37.8214  41
  -3  12  -6 390.699 41.7152  20
  -3  12  -6 414.260 40.6413  43
   3 -12   7 2946.96 126.191  18
  -3  12  -7 2987.84 108.738  43
  -3  12  -7 2968.69 113.107  20
   3 -12   7 3016.07 121.092  13
   3 -12   8 197.899 30.4158  19
   3 -12   8 214.608 36.4531  18
  -3  12  -8 188.544 28.1011  20
  -3  12  -8 205.173 30.4224  43
   3 -12   8 240.829 36.7902  13
  -3  12  -9 46.4024 15.5770  20
   3 -12   9 53.2772 17.8375  19
   3 -12   9 67.9318 23.7862  18
  -3  12  -9 32.1384 16.1253  43
   3 -12   9 25.1895 17.6647  13
   3 -12  10 1897.00 83.1847  12
   3 -12  10 1805.52 75.6473  19
  -3  12 -10 1989.60 77.3790  43
   3 -12  11 326.508 28.8718  19
  -3  12 -11 363.625 30.9583  43
   3 -12  11 400.451 34.4438  12
   3 -12  11 394.578 36.1714  26
  -3  12 -11 340.184 26.9753  39
  -3  12 -12 257.829 21.9019  43
   3 -12  12 323.598 29.6874  26
   3 -11  -4 2535.23 86.1092  47
   3 -11  -4 2428.03 87.5179  18
  -3  11   4 2552.26 85.4351  42
  -3  11   4 2693.98 87.7315  25
  -3  11   4 2624.38 95.3840  44
   3 -11  -4 2586.96 95.7054  37
  -3  11   4 2429.54 81.9828  41
   3 -11  -3 21.6679 16.8934  37
   3 -11  -3 35.0851 14.5885  47
   3 -11  -3-12.9618 14.3911  18
  -3  11   3-3.31378 11.8185  41
  -3  11   3 9.35428 13.0892  44
  -3  11   3 28.6449 16.5144  42
  -3  11   3 42.2366 15.9790  25
   3 -11  -2 1557.50 86.2294  18
   3 -11  -2 1605.48 87.0065  37
  -3  11   2 1493.96 81.5726  42
  -3  11   2 1644.17 86.4669  44
  -3  11   2 1522.38 83.4416  41
   3 -11  -2 1561.73 79.3077  47
  -3  11   2 1587.65 76.4576  25
   3 -11  -1 50.6594 18.5621  37
   3 -11  -1 42.8777 18.6847  18
  -3  11   1 35.1019 19.5890  41
   3 -11  -1 72.3747 22.6138  47
  -3  11   1 64.8293 20.2478  44
  -3  11   1 70.6148 24.3647  42
  -3  11   1 47.4088 16.9746  25
  -3  11   0 41.2549 13.2039  20
   3 -11   0 55.4501 21.9720  18
   3 -11   0 32.3061 15.9984  47
  -3  11   0 70.3791 23.0369  41
   3 -11   0 37.6234 18.0079  37
  -3  11   0 40.0138 18.6981  44
  -3  11   0 36.1310 15.5746  25
  -3  11   0 23.8868 16.4524  42
   3 -11   1 945.494 76.4808  18
   3 -11   1 922.295 67.4896  47
  -3  11  -1 920.853 66.1860  20
  -3  11  -1 1017.53 74.0727  42
  -3  11  -1 1064.07 79.1063  41
   3 -11   1 890.364 63.7297  13
   3 -11   1 941.686 71.5979  37
   3 -11   1 884.696 67.0976  38
   3 -11   2 26.0802 16.3446  38
  -3  11  -2 32.0047 19.3989  20
   3 -11   2 13.3524 21.2247  37
   3 -11   2-0.89303 20.2196  18
   3 -11   2 13.5735 15.7363  47
  -3  11  -2 22.3356 21.9112  42
  -3  11  -2 41.0727 22.8592  41
   3 -11   2 3.59515 14.7321  13
  -3  11  -3 270.237 38.6334  20
   3 -11   3 237.742 39.5143  38
   3 -11   3 255.476 40.7083  18
  -3  11  -3 260.615 39.7922  41
   3 -11   3 291.641 38.9951  47
   3 -11   3 332.069 44.1033  37
  -3  11  -3 274.346 34.2116  43
  -3  11  -3 306.126 41.0504  42
   3 -11   3 269.274 38.7035  13
  -3  11  -4 1517.12 86.8683  42
   3 -11   4 1529.07 99.6487  18
  -3  11  -4 1484.84 80.7915  43
   3 -11   4 1478.56 92.2707  37
  -3  11  -4 1629.61 94.3448  41
   3 -11   4 1441.89 90.3653  13
  -3  11  -4 1694.87 94.9918  20
   3 -11   4 1576.87 98.0408  38
   3 -11   5 97.7499 28.1687  37
  -3  11  -5 159.997 31.9852  20
   3 -11   5 131.215 34.5670  18
   3 -11   5 109.524 30.2990  13
  -3  11  -5 125.403 28.6759  41
  -3  11  -5 135.137 27.7930  43
  -3  11  -5 132.340 25.8573  42
  -3  11  -6 5419.36 163.383  43
   3 -11   6 5109.15 190.490  18
  -3  11  -6 5462.23 171.713  20
   3 -11   6 5089.61 174.648  37
   3 -11   6 5314.57 180.250  13
   3 -11   7 2001.62 109.774  13
  -3  11  -7 1961.09 96.3115  43
   3 -11   7 2198.55 120.448  18
  -3  11  -7 2129.72 102.287  20
   3 -11   8 376.734 43.8322  19
   3 -11   8 306.459 46.6291  18
  -3  11  -8 312.940 39.6757  43
  -3  11  -8 328.737 39.7795  20
   3 -11   8 293.295 42.3323  13
  -3  11  -9 595.776 48.7514  20
   3 -11   9 627.251 54.0551  19
  -3  11  -9 646.184 51.7972  43
   3 -11   9 599.458 56.9986  13
   3 -11   9 599.512 61.3302  18
  -3  11 -10 580.680 47.4622  43
   3 -11  10 576.321 49.1299  19
   3 -11  10 631.195 56.2522  12
   3 -11  11 3429.24 111.182  19
  -3  11 -11 3624.53 109.854  43
   3 -11  11 3634.78 122.844  12
   3 -11  12 8.43472 10.1400  12
   3 -11  12 0.83890 9.52875  19
  -3  11 -12 5.56850 8.52064  43
   3 -11  12-12.8917 12.0776  23
   3 -11  12 2.82375 12.8549  26
   3 -11  13 319.115 25.9311  23
   3 -11  13 410.872 34.3629  26
   3 -10  -6 251.162 29.4877  37
  -3  10   6 211.999 27.5951  44
  -3  10   6 239.171 26.8819  25
   3 -10  -6 266.021 30.3281  47
   3 -10  -5 112.082 27.7006  37
   3 -10  -5 107.739 21.6985  18
  -3  10   5 108.539 25.4226  44
   3 -10  -5 94.5364 22.3613  47
  -3  10   5 91.8295 19.9026  25
  -3  10   5 96.2130 19.3625  42
  -3  10   4 1091.79 74.1645  44
  -3  10   4 1163.91 71.1130  25
  -3  10   4 1107.94 69.1352  42
   3 -10  -4 1197.99 76.8195  37
   3 -10  -4 1087.38 71.3238  18
   3 -10  -4 1163.06 74.1029  47
  -3  10   4 1062.92 67.4692  41
  -3  10   3 857.422 62.7412  25
   3 -10  -3 736.993 63.6032  18
  -3  10   3 860.252 69.6625  44
  -3  10   3 793.636 64.1459  42
   3 -10  -3 833.898 65.7314  47
   3 -10  -3 834.546 67.9889  37
  -3  10   3 827.422 65.6703  41
  -3  10   2 21.9270 14.7108  25
   3 -10  -2 22.8921 23.3387  37
   3 -10  -2 25.4849 21.8847  18
   3 -10  -2 9.90565 15.2636  47
  -3  10   2-10.8867 19.2298  44
  -3  10   2-4.47764 17.4670  42
  -3  10   2 3.79631 19.7633  41
   3 -10  -1 3145.54 139.676  37
   3 -10  -1 3242.64 144.255  18
   3 -10  -1 3117.89 133.060  46
  -3  10   1 3175.88 125.342  25
  -3  10   1 3225.66 140.762  44
  -3  10   1 3273.70 141.968  42
   3 -10  -1 3318.05 137.895  47
  -3  10   1 3171.35 141.130  41
  -3  10   0 592.309 55.4763  20
  -3  10   0 554.511 51.7876  25
   3 -10   0 670.384 65.7872  37
   3 -10   0 554.816 58.4864  46
  -3  10   0 587.119 61.3659  42
  -3  10   0 518.815 55.1724  44
   3 -10   0 522.764 53.7931  38
  -3  10   0 545.425 58.3167  41
   3 -10   0 557.270 63.4924  18
   3 -10   0 643.261 62.3934  47
  -3  10  -1 7610.70 212.919  20
   3 -10   1 7851.89 239.100  18
  -3  10  -1 7561.37 216.778  44
   3 -10   1 7311.85 216.137  47
   3 -10   1 7760.57 229.740  37
  -3  10  -1 7581.44 196.173  25
  -3  10  -1 8365.34 238.221  41
  -3  10  -1 8018.81 228.651  42
   3 -10   1 7291.93 212.754  13
   3 -10   1 7666.11 228.827  46
   3 -10   1 7313.76 217.960  38
   3 -10   2 12376.9 304.369  37
  -3  10  -2 13341.0 297.434  20
   3 -10   2 13192.1 324.395  18
   3 -10   2 12947.0 316.959  46
  -3  10  -2 12257.4 264.368  43
  -3  10  -2 13958.1 316.486  41
  -3  10  -2 13111.8 303.671  42
   3 -10   2 12861.0 301.106  13
   3 -10   2 12662.3 297.533  47
   3 -10   2 12609.8 304.257  38
   3 -10   3 202.402 38.4082  38
  -3  10  -3 239.686 39.6779  20
   3 -10   3 225.580 43.9059  18
   3 -10   3 229.294 41.3998  47
   3 -10   3 208.692 38.9150  13
  -3  10  -3 213.134 40.2618  41
  -3  10  -3 211.691 34.8777  43
  -3  10  -3 223.922 37.8387  42
   3 -10   3 210.570 41.2798  46
   3 -10   3 238.271 43.1778  37
   3 -10   4 16565.7 363.156  37
   3 -10   4 17367.8 382.700  18
  -3  10  -4 17306.2 348.781  20
   3 -10   4 16841.9 358.723  47
  -3  10  -4 17022.9 329.455  43
  -3  10  -4 16530.4 337.247  42
   3 -10   4 16990.2 362.337  13
  -3  10  -4 17654.5 355.268  41
   3 -10   4 16947.1 372.424  38
   3 -10   5 8619.30 248.162  37
   3 -10   5 8659.05 246.260  13
   3 -10   5 8837.86 264.572  18
  -3  10  -5 8989.60 225.063  43
  -3  10  -5 9042.43 235.344  20
  -3  10  -5 8909.38 231.027  41
   3 -10   5 8640.19 242.934  47
   3 -10   5 8792.41 256.283  38
   3 -10   6 45832.3 712.545  37
   3 -10   6 46563.1 735.751  18
   3 -10   6 44940.0 697.899  47
  -3  10  -6 46623.4 679.662  20
   3 -10   6 46167.7 707.526  13
   3 -10   7 39.4067 25.1349  37
   3 -10   7 44.3399 30.9598  18
   3 -10   7 81.5828 33.4854  13
  -3  10  -7 78.8007 29.4682  20
  -3  10  -8 21021.8 377.615  20
   3 -10   8 19857.1 389.152  19
   3 -10   8 20802.1 410.444  13
  -3  10  -9 1170.59 73.6838  43
   3 -10   9 1029.59 74.1868  19
   3 -10   9 1123.21 89.5068  18
   3 -10   9 1021.75 78.2784  13
  -3  10  -9 1076.21 68.2041  20
   3 -10  10 6888.20 191.049  19
   3 -10  10 7344.47 223.014  18
  -3  10 -10 7256.29 184.530  43
   3 -10  10 7248.51 207.639  13
   3 -10  11 649.358 51.9497  19
  -3  10 -11 655.161 49.4275  43
   3 -10  11 680.578 57.6971  12
   3 -10  12 42.4557 16.6184  12
   3 -10  12 24.8328 17.3132  26
  -3  10 -12 16.5674 11.4392  43
   3 -10  12 7.86232 13.5461  23
   3 -10  13 130.933 21.7598  23
   3 -10  13 164.191 26.5121  26
   3 -10  14 151.333 21.6460  26
   3 -10  14 160.875 21.2379  23
   3  -9  -8 922.448 49.3011  37
  -3   9   8 1009.06 55.2396  27
  -3   9   8 1010.95 49.5150  25
  -3   9   8 957.637 52.0275  44
   3  -9  -8 990.185 51.9618  47
   3  -9  -7 99.2597 22.1968  37
  -3   9   7 92.2380 21.4889  25
  -3   9   7 76.4881 20.3974  44
   3  -9  -6 4477.23 147.871  37
   3  -9  -6 4143.80 133.436  18
  -3   9   6 4608.42 143.537  25
  -3   9   6 4348.00 151.324  44
   3  -9  -5 1115.91 78.1431  37
   3  -9  -5 928.649 67.8752  18
  -3   9   5 1102.01 73.6236  25
  -3   9   5 1041.92 77.5530  44
  -3   9   5 987.988 67.8170  41
  -3   9   5 998.769 68.2344  42
  -3   9   4 524.364 59.2354  44
   3  -9  -4 580.346 60.7468  37
   3  -9  -4 472.749 52.7524  18
  -3   9   4 541.480 54.9857  42
  -3   9   4 501.528 53.5933  25
  -3   9   4 524.535 54.2825  41
   3  -9  -3 11746.1 289.561  37
   3  -9  -3 10728.9 276.116  18
  -3   9   3 10792.5 278.330  41
  -3   9   3 11351.6 280.140  42
  -3   9   3 11579.7 295.744  44
  -3   9   3 11580.2 270.167  25
   3  -9  -2 12346.2 304.840  37
   3  -9  -2 11918.5 299.226  18
  -3   9   2 12602.9 311.626  44
  -3   9   2 12645.3 284.994  25
  -3   9   2 12586.7 307.246  41
  -3   9   2 12495.8 300.366  42
  -3   9   1 20323.0 375.155  20
   3  -9  -1 19986.4 411.492  18
  -3   9   1 20435.5 379.471  25
  -3   9   1 21233.6 416.672  44
   3  -9  -1 19316.8 392.873  46
  -3   9   1 20209.3 410.767  41
   3  -9  -1 20318.5 409.056  37
  -3   9   1 19723.3 402.072  42
   3  -9   0 7627.91 236.686  18
   3  -9   0 8408.33 240.338  37
   3  -9   0 7480.57 228.448  46
  -3   9   0 7677.36 208.653  25
   3  -9   0 7666.87 226.221  47
  -3   9   0 8032.72 218.443  20
  -3   9   0 8265.88 235.894  44
  -3   9   0 8273.36 235.975  42
  -3   9   0 8235.60 239.455  41
  -3   9  -1 927.378 70.4973  20
   3  -9   1 979.767 79.0739  46
  -3   9  -1 866.012 61.5732  43
  -3   9  -1 943.903 73.6040  42
  -3   9  -1 867.370 73.1771  41
   3  -9   1 940.518 79.6573  18
  -3   9  -1 913.751 65.7098  25
   3  -9   1 1006.14 78.0430  13
   3  -9   1 911.703 75.9486  37
   3  -9   1 826.866 71.6678  38
   3  -9   1 865.045 71.9751  47
   3  -9   2 14326.9 324.184  47
   3  -9   2 14456.1 342.111  18
   3  -9   2 14412.7 335.580  46
  -3   9  -2 14073.0 288.454  43
   3  -9   2 14540.3 333.671  37
  -3   9  -2 14986.9 322.915  42
  -3   9  -2 15183.4 329.716  41
   3  -9   2 14555.7 326.951  13
  -3   9  -2 14725.8 313.714  20
   3  -9   2 14424.0 330.033  38
  -3   9  -3 46897.8 678.053  20
   3  -9   3 45430.1 698.395  47
   3  -9   3 45924.7 710.129  37
   3  -9   3 45668.2 714.770  46
  -3   9  -3 46984.2 687.931  41
   3  -9   3 44645.3 716.683  18
   3  -9   3 45258.2 698.109  13
  -3   9  -3 45702.8 650.264  43
  -3   9  -3 46665.6 679.170  42
   3  -9   3 44271.5 706.855  38
  -3   9  -4 989.919 73.9264  20
   3  -9   4 841.475 79.9172  18
   3  -9   4 922.044 79.2352  37
   3  -9   4 863.064 75.1357  13
   3  -9   4 804.443 68.9381  47
  -3   9  -4 962.130 70.9687  42
  -3   9  -4 816.200 66.3548  41
   3  -9   4 799.555 74.1384  38
   3  -9   5 112.304 33.3257  37
  -3   9  -5 120.453 26.3149  20
   3  -9   5 120.876 34.3513  18
   3  -9   5 134.405 33.0992  47
   3  -9   5 64.4472 22.5925  13
   3  -9   5 55.2608 19.5278  38
  -3   9  -6 1404.19 84.2426  20
   3  -9   6 1163.17 92.4140  18
   3  -9   6 1137.26 85.5799  13
   3  -9   6 1198.24 88.6059  37
   3  -9   6 1225.90 89.6016  47
  -3   9  -7 3041.37 125.685  20
   3  -9   7 3192.62 155.893  18
   3  -9   7 3094.70 146.046  47
   3  -9   7 3055.35 144.298  37
   3  -9   7 3096.49 142.245  13
   3  -9   8 529.821 55.7115  19
  -3   9  -8 537.705 51.4104  20
   3  -9   8 529.353 65.7846  18
   3  -9   8 505.873 59.6748  47
   3  -9   8 531.314 61.9929  13
   3  -9   8 517.178 59.5515  37
   3  -9   9 13696.5 318.707  37
   3  -9   9 13948.2 325.761  47
   3  -9   9 12334.3 284.720  19
   3  -9   9 12871.4 326.195  18
   3  -9   9 12870.6 307.503  13
   3  -9  10 1401.13 92.7814  12
   3  -9  10 1306.06 81.1853  19
  -3   9 -10 1460.46 79.4022  43
   3  -9  10 1502.59 94.1612  13
   3  -9  10 1532.33 99.6407  47
   3  -9  11 2684.26 111.437  19
  -3   9 -11 2984.95 107.255  43
   3  -9  11 2966.35 131.235  47
   3  -9  11 2842.93 127.058  12
   3  -9  12 1260.92 83.2511  26
   3  -9  12 1255.76 77.4414  23
   3  -9  12 1181.02 74.7087  12
   3  -9  13 13.9914 17.7919  26
   3  -9  13-0.07726 15.9141  23
   3  -9  14 349.216 34.8359  23
   3  -9  14 370.500 36.4919  26
   3  -9  15 109.195 16.8327  23
   3  -9  15 107.570 17.5941  26
   3  -8  -9 2005.04 77.2980  37
  -3   8   9 1994.07 84.8399  27
  -3   8   9 1928.84 72.1045  25
  -3   8   9 1932.75 79.3713  44
   3  -8  -8 1330.48 73.2614  37
  -3   8   8 1315.85 70.4243  25
  -3   8   8 1272.14 78.0653  27
  -3   8   8 1340.37 77.2454  44
  -3   8   7 2895.89 117.981  25
  -3   8   7 2865.17 126.077  44
  -3   8   7 2861.10 118.768  49
   3  -8  -6 18.9502 16.2932  18
  -3   8   6 30.8119 19.2597  49
  -3   8   6 19.4760 18.7672  25
  -3   8   5 4393.49 157.538  49
   3  -8  -5 4063.37 155.154  18
  -3   8   5 4587.43 163.133  25
  -3   8   5 4480.40 178.812  44
  -3   8   5 4157.71 157.167  41
  -3   8   5 4183.43 155.485  42
   3  -8  -4 1021.26 78.9353  18
  -3   8   4 1123.80 80.9524  25
  -3   8   4 1111.72 82.2971  42
  -3   8   4 1148.53 93.2844  44
  -3   8   4 1099.87 83.7010  41
  -3   8   3 33424.6 566.111  42
   3  -8  -3 32937.5 561.151  18
  -3   8   3 34313.1 549.663  25
  -3   8   3 35218.8 597.056  44
  -3   8   3 34069.8 575.914  41
   3  -8  -2 1411.33 95.6588  18
  -3   8   2 1517.26 91.7233  25
  -3   8   2 1725.12 107.630  44
  -3   8   2 1617.70 100.958  42
  -3   8   2 1527.60 99.9823  41
   3  -8  -1 32090.4 547.442  46
   3  -8  -1 32421.2 555.154  18
  -3   8   1 32647.6 522.452  20
   3  -8  -1 33709.5 561.360  37
  -3   8   1 32992.1 523.786  25
  -3   8   1 34077.4 568.035  44
  -3   8   1 33294.0 552.750  42
  -3   8   1 33783.8 562.039  41
  -3   8   0 24.3078 17.5852  25
   3  -8   0 28.5071 20.6296  37
  -3   8   0 77.4351 26.7846  20
   3  -8   0 8.93265 20.9912  18
   3  -8   0 16.0572 18.7337  46
  -3   8   0 27.3387 17.3175  44
  -3   8   0 55.1333 22.1507  42
  -3   8   0 34.8869 21.2269  41
  -3   8  -1 8430.10 220.461  20
   3  -8   1 8274.31 238.746  18
   3  -8   1 8312.59 236.705  46
  -3   8  -1 8372.45 208.349  25
  -3   8  -1 8092.87 200.683  43
   3  -8   1 8862.65 236.803  47
   3  -8   1 8674.97 238.272  37
  -3   8  -1 8454.95 228.346  42
  -3   8  -1 8764.21 235.328  41
   3  -8   1 8807.56 238.305  13
   3  -8   1 8025.04 225.725  38
   3  -8   2 26250.7 468.688  37
  -3   8  -2 25786.4 437.240  20
   3  -8   2 26080.1 474.297  18
   3  -8   2 26545.1 1169.05   1
  -3   8  -2 24818.9 998.669   6
   3  -8   2 25424.3 457.094  13
   3  -8   2 27305.6 469.284  47
   3  -8   2 25547.9 470.007  46
  -3   8  -2 25731.2 417.633  43
  -3   8  -2 25396.6 445.532  42
  -3   8  -2 26127.5 451.918  41
   3  -8   2 24553.8 454.160  38
   3  -8   3 73.2221 56.6738   1
   3  -8   3 97.4378 25.4946  38
  -3   8  -3-1.06099 52.6921   6
   3  -8   3 83.3081 22.6945  37
  -3   8  -3 117.737 25.8776  20
  -3   8  -3 77.9742 61.4540  31
   3  -8   3 101.436 28.0014  18
   3  -8   3 171.472 34.6169  13
   3  -8   3 186.721 32.6433  47
   3  -8   3 105.197 29.5978  46
  -3   8  -3 101.611 24.7579  41
  -3   8  -4 2128.84 102.664  20
   3  -8   4 1903.70 313.270   1
  -3   8  -4 2083.55 281.106  31
   3  -8   4 2136.59 114.438  37
   3  -8   4 2218.43 114.837  47
   3  -8   4 2149.32 112.834  13
   3  -8   4 2263.41 120.721  18
   3  -8   4 2109.42 113.608  38
  -3   8  -5 17698.5 337.102  20
   3  -8   5 17603.5 369.785  37
   3  -8   5 17608.4 386.599  18
  -3   8  -5 16074.3 776.024  31
  -3   8  -5 17634.1 714.046  28
   3  -8   5 17644.3 366.186  13
   3  -8   5 17853.5 370.232  47
   3  -8   5 17463.4 373.574  38
  -3   8  -6 6245.92 183.893  20
   3  -8   6 6578.71 219.568  18
   3  -8   6 6341.50 207.353  37
   3  -8   6 6507.48 205.717  13
   3  -8   6 6301.16 207.324  47
   3  -8   7 187.266 36.7374  37
  -3   8  -7 203.575 32.5349  20
   3  -8   7 189.452 39.9783  18
   3  -8   7 169.193 35.9149  47
   3  -8   8 9923.09 279.404  18
   3  -8   8 9581.23 244.816  19
   3  -8   8 10034.6 275.383  47
   3  -8   8 10197.1 277.754  37
   3  -8   8 9867.65 264.199  13
   3  -8   9 49.0666 23.3761  37
   3  -8   9 48.2562 19.2147  19
   3  -8   9 51.4523 31.8539  18
   3  -8   9 55.4397 26.5460  47
   3  -8   9 99.9784 28.6659  13
   3  -8  10 2825.73 136.085  37
   3  -8  10 2964.34 137.687  12
   3  -8  10 3114.59 146.872  47
   3  -8  11 1139.52 81.7067  12
   3  -8  11 1017.08 78.7520  26
   3  -8  11 1091.25 87.1572  47
   3  -8  12 12.0510 15.9642  12
   3  -8  12-11.2523 18.3525  47
   3  -8  12 11.0075 25.7926  26
   3  -8  12 19.2925 17.9303  23
   3  -8  13 787.185 62.3259  23
   3  -8  13 845.571 65.3447  26
   3  -8  14 288.493 36.7301  26
   3  -8  14 277.294 34.7748  23
   3  -8  15 623.923 42.9673  26
   3  -8  15 648.022 44.2343  23
   3  -7 -10 704.152 47.5848  37
  -3   7  10 666.354 51.5321  27
  -3   7  10 697.036 42.0656  25
  -3   7  10 665.505 46.5553  44
  -3   7   9 1830.43 99.4944  27
  -3   7   9 1791.50 91.7834  44
  -3   7   9 1868.67 85.0497  25
  -3   7   8 778.714 61.2517  25
  -3   7   8 846.407 68.0166  49
  -3   7   8 666.336 63.7061  44
  -3   7   7 11.6442 17.1042  25
  -3   7   7-19.2487 24.1744  44
  -3   7   7-18.4494 22.5573  49
  -3   7   6 7559.82 240.252  44
   3  -7  -6 7021.57 206.105  18
  -3   7   6 7490.41 216.269  25
  -3   7   6 7233.62 219.792  49
   3  -7  -5 423.254 48.5525  18
  -3   7   5 514.684 56.4344  49
  -3   7   5 544.164 58.2776  25
  -3   7   5 528.135 55.9292  42
  -3   7   5 511.126 56.4878  41
  -3   7   5 532.526 63.3386  44
   3  -7  -4 4633.97 167.197  18
  -3   7   4 4841.54 167.978  25
  -3   7   4 5215.38 196.478  44
  -3   7   4 4893.01 174.890  42
  -3   7   4 4807.51 178.347  41
  -3   7   4 4773.57 168.810  49
   3  -7  -3 3986.61 154.338  18
  -3   7   3 3896.12 146.787  25
  -3   7   3 4392.84 173.359  44
  -3   7   3 4210.06 160.828  42
  -3   7   3 4043.96 161.460  41
   3  -7  -2 20824.1 872.196  33
   3  -7  -2 20651.0 399.055  18
  -3   7   2 21090.0 384.600  25
  -3   7   2 22358.9 418.741  41
  -3   7   2 22163.3 426.503  44
  -3   7   2 21536.6 404.742  42
   3  -7  -1 18787.8 803.800  33
   3  -7  -1 17817.5 851.768  29
   3  -7  -1 19679.1 921.038   1
  -3   7   1 18281.7 799.329   6
  -3   7   0 515.894 132.983   6
   3  -7   0 504.970 132.897  33
   3  -7   0 423.000 130.225   1
   3  -7   0 456.223 135.249  29
   3  -7   1 10275.4 577.388  33
  -3   7  -1 11091.0 656.857  31
   3  -7   1 11190.5 662.539  29
   3  -7   1 12131.6 722.666   1
  -3   7  -1 10968.9 603.126   6
  -3   7  -2 4057.77 379.573  31
   3  -7   2 4832.57 458.201   1
   3  -7   2 4054.38 362.065  33
  -3   7  -2 4080.97 368.019   6
  -3   7  -3 5291.54 420.161  31
  -3   7  -3 5203.09 338.186  28
  -3   7  -3 4912.22 406.555   6
   3  -7   3 5514.02 495.915   1
   3  -7   4 3665.02 410.979   1
  -3   7  -4 3440.48 326.994  31
  -3   7  -4 3538.12 290.453  28
  -3   7  -4 4006.93 369.500   6
   3  -7   5 14983.9 858.929   1
  -3   7  -5 12430.3 622.501  31
  -3   7  -5 13796.5 609.655  28
  -3   7  -5 13454.4 693.655   6
  -3   7  -6 6422.73 389.984  32
   3  -7   6 7406.83 633.593   5
   3  -7   6 6751.82 541.868  10
  -3   7  -6 6343.40 421.164  28
  -3   7  -6 6321.52 475.143   6
   3  -7   6 6950.08 594.915   1
   3  -7   7 310.728 43.3013  13
  -3   7  -7 314.398 109.658   6
   3  -7   7 231.577 39.6798  37
  -3   7  -7 355.148 94.2486  32
   3  -7   7 281.998 44.2340  18
   3  -7   7 199.238 114.595   5
   3  -7   7 231.388 87.3604   1
  -3   7  -7 331.854 98.2585  28
   3  -7   7 283.897 44.4498  47
   3  -7   8 21942.3 431.730  37
   3  -7   8 21774.6 434.005  47
   3  -7   8 21956.4 443.093  18
   3  -7   8 21435.2 411.791  13
   3  -7   9 582.419 62.1946  47
   3  -7   9 605.909 64.1156  37
   3  -7   9 664.455 69.8695  18
   3  -7   9 605.838 61.2777  13
   3  -7  10 1391.01 98.6578  37
   3  -7  10 1360.29 98.8766  47
   3  -7  10 1293.67 89.3342  12
   3  -7  11 2644.97 126.605  12
   3  -7  11 2866.79 142.938  47
   3  -7  11 2770.19 135.703  37
   3  -7  11 2659.28 130.190  26
   3  -7  12 8698.15 229.754  12
   3  -7  12 9271.24 245.888  26
   3  -7  12 8525.11 236.280  23
   3  -7  12 9543.52 261.055  47
   3  -7  13 65.4161 25.5317  23
   3  -7  13 71.3980 25.7960  26
  -3   7 -14 1087.98 52.9226  48
   3  -7  14 1158.44 70.5314  26
   3  -7  14 1033.04 68.3254  23
   3  -7  15 5174.11 135.021  26
   3  -7  15 5108.49 133.357  23
   3  -7  16 68.9700 14.6354  23
  -3   6  11 3269.12 104.391  44
  -3   6  11 3468.71 90.5196  24
  -3   6  11 3339.91 118.236  27
  -3   6  10 312.245 42.6180  27
  -3   6  10 288.647 33.1802  25
  -3   6  10 308.119 31.1163  24
  -3   6  10 288.199 38.2735  44
  -3   6   9 1520.39 95.7546  44
  -3   6   9 1692.36 100.803  49
  -3   6   9 1671.63 79.2272  24
  -3   6   9 1620.28 87.8599  25
  -3   6   8 12.1597 22.4359  49
  -3   6   8 35.1951 22.7738  25
  -3   6   8 36.5047 17.4604  24
  -3   6   8 51.3370 25.7095  44
  -3   6   7 2706.44 136.177  49
  -3   6   7 2674.92 124.446  25
  -3   6   7 2755.98 143.048  44
  -3   6   7 2731.15 110.067  24
  -3   6   6 561.951 61.3410  49
  -3   6   6 814.040 68.1675  25
  -3   6   6 738.069 74.4224  44
  -3   6   6 653.732 53.1309  24
  -3   6   5 17606.1 388.848  44
  -3   6   5 17154.4 362.829  41
  -3   6   5 17444.9 363.385  49
  -3   6   5 17781.0 353.093  25
  -3   6   5 17072.0 351.069  42
   3  -6  -4 10714.4 259.969  18
  -3   6   4 11071.7 267.457  49
  -3   6   4 11546.6 266.109  25
  -3   6   4 11756.8 297.942  44
  -3   6   4 11733.6 273.587  42
  -3   6   4 11579.7 280.920  41
   3  -6  -3 36137.8 1152.27  33
  -3   6   3 36925.4 1264.50   8
   3  -6  -3 36894.3 1197.82  29
  -3   6   3 38937.6 1389.17  35
  -3   6   2-32.5077 68.2397   8
   3  -6  -2-9.42917 33.3647  33
   3  -6  -2 3.09924 30.0989   3
   3  -6  -1 15857.0 650.878   3
   3  -6  -1 15067.9 677.808  33
   3  -6  -1 16698.7 759.707  29
   3  -6  -1 17461.8 791.807   1
  -3   6   1 16135.6 682.171   6
   3  -6   0 18173.1 732.407  33
  -3   6   0 17766.3 793.282  31
   3  -6   0 18258.4 793.971  29
   3  -6   0 18844.8 830.928   1
  -3   6   0 18120.3 722.578   6
   3  -6   0 18012.7 693.659   3
  -3   6  -1 15961.9 719.845  31
   3  -6   1 15526.9 725.453  29
   3  -6   1 15606.5 677.930  33
   3  -6   1 17311.2 799.756   1
   3  -6   1 17197.4 705.317   3
  -3   6  -1 16301.7 688.425   6
   3  -6   2 30799.8 984.270  33
  -3   6  -2 30628.9 985.189  31
   3  -6   2 32781.1 1135.61   1
  -3   6  -2 30456.7 800.068  28
  -3   6  -2 31693.8 980.935   6
   3  -6   3 3120.68 304.659  33
   3  -6   3 3115.89 343.304   1
  -3   6  -3 3010.31 285.988  31
  -3   6  -3 3031.21 247.035  28
  -3   6  -3 3170.64 298.378   6
   3  -6   4 31399.8 1165.23   1
   3  -6   4 30075.7 1019.85  33
  -3   6  -4 31031.4 783.386  32
  -3   6  -4 31338.5 945.529  31
  -3   6  -4 30354.9 869.109  28
  -3   6  -4 32451.8 1015.32   6
   3  -6   5 7279.54 558.515   1
  -3   6  -5 6777.51 366.451  32
  -3   6  -5 6602.11 403.383  31
  -3   6  -5 6959.06 407.773  28
  -3   6  -5 7357.52 474.804   6
   3  -6   6-52.3506 79.9501   1
  -3   6  -6 24.5628 26.2272  32
   3  -6   6 105.411 85.5813   5
   3  -6   6 139.936 90.7528  10
  -3   6  -6 25.6245 31.4900  28
  -3   6  -6-12.1799 41.5187   6
   3  -6   7 3197.25 403.628   5
  -3   6  -7 3018.40 274.303  32
  -3   6  -7 2854.20 280.021  28
   3  -6   7 2716.28 364.651   1
  -3   6  -7 2793.29 302.059   6
   3  -6   8 8591.29 685.311   5
   3  -6   8 7695.21 230.484  18
  -3   6  -8 7994.76 468.048  32
  -3   6  -8 7170.44 462.488  28
  -3   6  -8 7686.87 511.906   6
   3  -6   8 7980.03 234.833  47
   3  -6   8 7958.12 650.705   1
   3  -6   9 1110.45 85.8175  37
   3  -6   9 1063.33 79.1580  12
   3  -6   9 1072.60 86.6482  47
   3  -6  10 10772.7 285.578  37
   3  -6  10 9882.25 262.302  26
   3  -6  10 10433.4 290.040  47
   3  -6  10 10122.0 264.398  12
   3  -6  11 6811.64 222.907  37
   3  -6  11 6623.11 205.706  12
   3  -6  11 7059.70 233.944  47
   3  -6  11 6745.29 212.366  26
   3  -6  12 149.110 30.7492  12
   3  -6  12 161.306 33.8431  23
   3  -6  12 163.806 33.0839  26
   3  -6  12 192.647 41.4857  47
   3  -6  13 3855.55 148.443  26
   3  -6  13 3906.17 145.425  23
   3  -6  14 1613.76 86.3474  26
   3  -6  14 1490.09 82.7973  23
   3  -6  15 1531.12 72.2781  26
   3  -6  15 1388.95 68.4607  23
   3  -6  16 1255.15 53.1912  26
   3  -6  16 1284.30 53.4510  23
  -3   5  12 1949.31 69.9828  24
  -3   5  12 1915.15 86.1028  27
  -3   5  11 139.419 28.9396  44
  -3   5  11 91.4908 20.3596  24
  -3   5  11 156.729 32.9268  27
  -3   5  10 200.092 39.5467  27
  -3   5  10 103.462 20.4482  25
  -3   5  10 132.987 30.7933  44
  -3   5  10 118.609 22.6414  24
  -3   5  10 145.070 34.0357  49
  -3   5   9 1430.32 98.6566  49
  -3   5   9 1383.77 84.4493  25
  -3   5   9 1465.13 99.3938  44
  -3   5   9 1501.21 82.7530  24
  -3   5   8 11808.9 303.687  49
  -3   5   8 11441.7 305.793  44
  -3   5   8 11410.3 271.862  25
  -3   5   8 11675.7 258.650  24
  -3   5   7 36639.2 613.952  49
  -3   5   7 36716.1 626.104  44
  -3   5   7 37168.9 581.203  25
  -3   5   7 36552.5 550.170  24
  -3   5   6 5830.21 205.490  44
  -3   5   6 5887.15 166.338  24
  -3   5   6 5927.49 198.560  49
  -3   5   6 5788.60 181.643  25
   3  -5  -5 5103.71 385.114   3
  -3   5   5 5009.80 496.614  35
   3  -5  -5 4601.14 400.690  33
   3  -5  -5 4316.29 375.463  29
  -3   5   5 5028.72 181.756  44
  -3   5   5 4577.11 447.936   8
   3  -5  -4 39160.5 1084.79   3
  -3   5   4 40622.0 1388.25  35
   3  -5  -4 39920.7 1189.58  33
   3  -5  -4 39552.4 1158.58  29
  -3   5   4 39474.8 1312.64   8
  -3   5   3 6783.47 497.729   8
   3  -5  -3 7558.80 428.016   3
  -3   5   3 7506.32 546.433  35
   3  -5  -3 8137.31 488.514  33
   3  -5  -3 7007.34 446.174  29
   3  -5  -2 77692.1 1537.85   3
   3  -5  -2 77827.7 1638.39  33
   3  -5  -2 78426.6 1660.34  29
  -3   5   2 78534.4 1749.60   8
   3  -5  -2 82465.1 1738.00   1
  -3   5   2 81441.7 1571.14   6
   3  -5  -1 3214.09 265.543   3
   3  -5  -1 2881.60 269.195  33
   3  -5  -1 2884.98 275.120  29
   3  -5  -1 3084.74 298.912   1
  -3   5   1 3278.07 274.716   6
   3  -5   0 22228.4 732.958   3
   3  -5   0 21562.9 752.449  33
   3  -5   0 20473.0 762.331  29
   3  -5   0 22482.0 835.097   1
  -3   5   0 21361.8 725.919   6
  -3   5  -1 51659.3 1247.42  31
   3  -5   1 48632.4 1247.46  29
  -3   5  -1 51683.7 1018.96  28
   3  -5   1 52773.1 1352.03   1
   3  -5   1 53500.0 1254.39  33
   3  -5   1 52374.3 1249.23   3
  -3   5  -1 47103.5 1157.21   6
  -3   5  -2 4844.46 336.992  31
   3  -5   2 4836.14 389.747   1
  -3   5  -2 4568.58 277.293  28
   3  -5   2 5007.64 385.835   3
   3  -5   2 4501.72 341.107  33
  -3   5  -2 4854.58 338.772   6
   3  -5   3 3335.00 330.818   1
   3  -5   3 3192.13 298.357  33
  -3   5  -3 3066.87 204.931  32
  -3   5  -3 3409.45 272.582  31
   3  -5   3 3365.70 349.481   3
  -3   5  -3 3087.29 238.061  28
  -3   5  -3 3377.23 285.750   6
   3  -5   4 3955.77 369.351   1
   3  -5   4 3343.52 316.416  33
  -3   5  -4 3529.17 238.386  32
  -3   5  -4 3390.21 264.571  31
  -3   5  -4 3492.49 265.795  28
   3  -5   4 3718.32 389.802   3
  -3   5  -4 3625.04 302.248   6
   3  -5   5 3679.01 373.022   1
  -3   5  -5 3790.14 264.272  32
  -3   5  -5 4093.85 298.949  28
   3  -5   5 4801.30 428.198   7
  -3   5  -5 3693.83 314.523   6
   3  -5   6 6571.61 533.705   5
  -3   5  -6 6275.38 362.507  32
  -3   5  -6 6779.98 401.307  28
   3  -5   6 6944.90 505.314   7
   3  -5   6 6588.59 523.625   1
  -3   5  -6 6582.70 432.358   6
   3  -5   7 576.704 164.582   1
  -3   5  -7 651.615 124.268  32
   3  -5   7 769.114 191.838   5
  -3   5  -7 784.894 141.230  28
  -3   5  -7 815.152 156.416   6
  -3   5  -8 6143.39 439.096   6
   3  -5   8 5798.43 539.607   5
  -3   5  -8 5645.29 381.386  32
  -3   5  -8 6582.47 422.663  28
   3  -5   8 5745.69 532.576   1
   3  -5   9 2117.06 109.418  12
   3  -5   9 1948.01 114.674  47
   3  -5   9 2126.12 118.329  37
   3  -5  10 24950.0 472.614  37
   3  -5  10 23969.8 442.909  12
   3  -5  10 23486.8 438.856  26
   3  -5  10 24359.7 472.041  47
   3  -5  11 977.917 75.7132  12
   3  -5  11 968.138 84.6665  47
   3  -5  11 905.556 74.2803  26
   3  -5  12 1039.38 75.6977  12
   3  -5  12 1049.98 90.0523  47
   3  -5  12 1040.24 77.4624  23
   3  -5  12 1013.77 79.5820  26
   3  -5  13 952.651 69.6829  23
   3  -5  13 916.482 70.4778  26
   3  -5  14 608.653 52.5239  23
   3  -5  14 661.900 55.2610  26
   3  -5  15 435.039 38.8630  26
   3  -5  15 390.154 36.7315  23
   3  -5  16 22.6724 10.7162  26
   3  -5  16 43.1989 12.0874  23
  -3   4  13 632.473 45.2405  27
  -3   4  13 666.964 40.6756  24
  -3   4  12 182.045 32.5093  27
  -3   4  12 223.990 29.3103  24
  -3   4  11 1411.30 96.0263  27
  -3   4  11 1609.55 82.9000  24
  -3   4  11 1492.23 90.4253  44
  -3   4  10 4633.47 182.352  49
  -3   4  10 4496.03 185.686  27
  -3   4  10 4468.53 174.172  44
  -3   4  10 4515.58 153.164  24
  -3   4   9 9951.14 244.005  25
  -3   4   9 10165.5 278.188  44
  -3   4   9 10043.2 280.249  49
  -3   4   9 10102.7 245.763  24
  -3   4   8 44601.2 716.643  44
  -3   4   8 45327.4 666.636  25
  -3   4   8 46586.3 661.371  24
  -3   4   8 46099.6 720.787  49
  -3   4   7 2160.34 118.629  49
  -3   4   7 2263.39 104.865  24
  -3   4   7 2278.57 123.329  44
  -3   4   6 417.798 129.584  35
   3  -4  -6 481.256 129.334  33
  -3   4   6 425.769 145.146   8
   3  -4  -6 448.529 119.424   3
   3  -4  -6 473.326 119.999  29
  -3   4   5 26087.2 1082.74  35
   3  -4  -5 29160.0 983.025  33
   3  -4  -5 26551.0 879.117   3
   3  -4  -5 29068.0 906.159  29
  -3   4   5 25386.6 1044.98   8
   3  -4  -4 2432.15 240.752   3
  -3   4   4 2514.44 310.656  35
   3  -4  -4 2784.74 276.771  33
   3  -4  -4 2781.36 255.221  29
  -3   4   4 2405.13 294.547   8
   3  -4  -3 88560.1 1676.53   3
  -3   4   3 99731.1 2042.62  35
   3  -4  -3 98010.2 1832.23  33
   3  -4  -3 107210. 1810.61  29
  -3   4   3 89767.1 1933.87   8
   3  -4  -2 12147.6 496.885   3
   3  -4  -2 11982.9 517.284  29
   3  -4  -2 12124.8 529.762   1
   3  -4  -2 12302.5 542.810  33
  -3   4   2 11988.9 477.695   6
   3  -4  -1 2834.24 249.202  33
   3  -4  -1 2553.54 233.691  29
  -3   4   1 3143.04 193.944  28
   3  -4  -1 2814.74 252.611   1
  -3   4   1 2776.59 226.612   6
  -3   4   0 102.438 50.9718   6
   3  -4   0 49.0247 48.0756   1
   3  -4   0 66.0031 46.5071  33
   3  -4   0 129.274 59.8745   3
   3  -4   0 127.408 51.9645  29
   3  -4   1 16724.8 629.246  33
   3  -4   1 18681.7 693.838   1
   3  -4   1 16415.5 625.885  29
  -3   4  -1 17467.8 516.754  28
  -3   4  -1 17809.9 608.359   6
   3  -4   1 17818.9 656.257   3
   3  -4   2 19973.2 746.277   1
   3  -4   2 19435.2 701.865  33
  -3   4  -2 19504.0 484.860  32
  -3   4  -2 18577.7 627.498  31
  -3   4  -2 19379.0 566.909  28
   3  -4   2 21194.4 790.506   3
  -3   4  -2 19830.4 655.689   6
   3  -4   3 9806.66 536.700   1
   3  -4   3 10082.5 516.197  33
  -3   4  -3 9864.31 360.615  32
  -3   4  -3 9644.37 422.280  31
  -3   4  -3 9881.30 407.859  28
   3  -4   3 10894.1 615.366   3
  -3   4  -3 10011.4 463.829   6
   3  -4   4 123173. 2252.07  33
   3  -4   4 133020. 2586.09   3
  -3   4  -4 123768. 1860.64  32
  -3   4  -4 124654. 1924.63  31
  -3   4  -4 129625. 1977.09  28
   3  -4   4 130596. 2384.42   1
  -3   4  -4 129796. 2121.34   6
  -3   4  -5 22420.4 653.274  32
   3  -4   5 23746.8 962.971   5
   3  -4   5 22155.8 734.059  10
  -3   4  -5 22207.6 685.965  28
   3  -4   5 23058.7 907.075   1
   3  -4   5 25161.1 1015.59   7
  -3   4  -5 22311.5 760.064   6
   3  -4   6 16156.8 794.187   5
  -3   4  -6 15786.5 573.786  32
  -3   4  -6 15826.3 595.061  28
  -3   4  -6 15954.4 659.728   6
   3  -4   6 17273.0 824.786   7
   3  -4   6 16559.6 800.833   1
   3  -4   7 25857.9 1060.69   5
  -3   4  -7 25228.6 781.018  32
   3  -4   7 26448.2 1069.20   1
  -3   4  -7 26118.4 816.456  28
   3  -4   7 24835.6 1023.18   7
  -3   4  -7 25257.7 873.189   6
   3  -4   8 3755.86 405.949   7
   3  -4   8 4517.15 459.281   1
   3  -4   8 3908.49 427.421   5
  -3   4  -8 4122.78 320.088  32
  -3   4  -8 4344.86 327.352  28
  -3   4  -8 4554.72 366.215   6
   3  -4   9 14547.4 332.152  37
  -3   4  -9 14239.9 628.876  32
  -3   4  -9 13235.0 652.248  30
  -3   4  -9 13960.6 619.868  28
   3  -4   9 13233.2 294.692  26
   3  -4   9 13952.3 851.126   5
   3  -4   9 14138.0 327.671  47
   3  -4   9 14905.8 856.719   7
   3  -4  10 30.6982 26.2452  37
   3  -4  10 21.6929 19.0269  12
   3  -4  10 36.2958 26.2592  47
   3  -4  10-0.15074 22.8395  26
   3  -4  10 48.1996 26.4782  40
   3  -4  11 1269.76 84.7407  12
   3  -4  11 1259.62 85.9286  26
   3  -4  11 1275.84 93.6653  40
   3  -4  11 1164.25 81.4448  23
   3  -4  11 1213.13 82.3210  22
   3  -4  11 1332.24 99.8613  47
   3  -4  12 1588.48 91.6848  12
   3  -4  12 1760.68 107.194  40
   3  -4  12 1673.32 97.1643  26
   3  -4  12 1549.79 92.4558  23
   3  -4  12 1679.86 93.3916  22
   3  -4  13 24.7993 19.5924  23
   3  -4  13 12.9296 20.4598  40
   3  -4  13 14.9491 18.6740  26
   3  -4  14 617.139 51.9527  24
   3  -4  14 604.732 53.1790  26
   3  -4  14 595.548 51.4082  23
   3  -4  15 1084.26 59.6837  26
   3  -4  15 1044.84 56.7687  23
   3  -4  16 106.266 15.9499  26
  -3   3  14 738.010 40.8708  24
  -3   3  13 187.595 29.2844  27
  -3   3  13 197.222 26.4987  24
  -3   3  12 713.645 57.4121  24
  -3   3  12 761.517 69.1633  27
  -3   3  11 993.214 85.2846  27
  -3   3  11 1076.70 74.3109  24
  -3   3  11 1049.12 79.9606  44
  -3   3  10 409.026 54.3866  27
  -3   3  10 435.945 55.6774  49
  -3   3  10 485.421 45.8605  23
  -3   3  10 503.874 52.5565  24
  -3   3  10 403.613 50.2313  44
  -3   3   9 8900.90 259.086  49
  -3   3   9 8814.55 256.037  44
  -3   3   9 9135.60 235.370  24
  -3   3   8 12813.7 310.735  44
  -3   3   8 12867.4 313.931  49
  -3   3   8 13215.0 286.153  24
   3  -3  -7 7091.34 477.048   3
   3  -3  -7 8292.72 469.778  29
   3  -3  -7 8519.66 560.359  33
  -3   3   7 7656.33 599.463   8
  -3   3   7 7949.47 606.559  35
  -3   3   6 1564.45 252.199  35
   3  -3  -6 1945.52 232.230   3
   3  -3  -6 1700.40 229.710  33
   3  -3  -6 1901.62 209.061  29
  -3   3   6 1573.52 261.002   8
  -3   3   5 1544.10 236.500  35
   3  -3  -5 1293.59 176.909   3
   3  -3  -5 1433.16 171.726  29
  -3   3   5 1529.37 235.412   8
   3  -3  -5 2044.28 233.932  33
  -3   3   4 59345.7 1486.02  35
   3  -3  -4 56813.5 1233.48   3
   3  -3  -4 59473.5 1320.04  33
  -3   3   4 53687.0 1430.71   8
   3  -3  -4 53793.2 1141.34  29
  -3   3   3 70821.0 1558.13   8
   3  -3  -3 70089.6 1354.47   3
  -3   3   3 74084.5 1590.53  35
   3  -3  -3 72865.1 1446.48  33
   3  -3  -3 69940.4 1302.58  29
   3  -3  -2 98589.2 1654.55   3
  -3   3   2 96867.1 1809.15  35
   3  -3  -2 103792. 1748.41  33
   3  -3  -2 98654.6 1621.68  29
   3  -3  -2 100305. 1613.74   1
  -3   3   2 100312. 1568.06   6
   3  -3  -1 2292.29 209.253  33
   3  -3  -1 2272.03 196.847   1
   3  -3  -1 2233.16 191.849  29
  -3   3   1 2319.76 166.573  28
   3  -3  -1 2227.77 194.873   3
  -3   3   1 2365.50 189.461   6
   3  -3   0 35724.6 868.579   3
   3  -3   0 34160.5 874.949  33
  -3   3   0 36200.4 739.680  28
   3  -3   0 36252.1 883.854   1
  -3   3   0 35334.1 584.037  32
  -3   3   0 35990.3 826.955   6
   3  -3   1 3041.97 248.142   1
   3  -3   1 3013.62 246.338  33
  -3   3  -1 3143.55 159.504  32
   3  -3   1 2822.62 221.813  29
  -3   3  -1 3237.37 202.977  28
   3  -3   1 3101.48 255.767   3
  -3   3  -1 2906.13 221.426   6
  -3   3  -2 15828.8 422.399  32
  -3   3  -2 16215.5 486.599  28
   3  -3   2 15886.5 607.468  33
   3  -3   2 17811.8 705.968   3
  -3   3  -2 16413.4 552.929   6
   3  -3   2 16043.1 613.980   1
  -3   3  -3 38221.1 917.557   6
   3  -3   3 37406.6 1024.72  33
  -3   3  -3 36422.7 756.023  32
  -3   3  -3 39456.4 849.816  28
   3  -3   3 40306.1 1215.31   3
   3  -3   3 37307.1 1030.55   1
  -3   3  -4 5246.08 271.340  32
  -3   3  -4 5539.44 299.463  28
   3  -3   4 5397.50 450.685   3
   3  -3   4 5373.29 382.702   1
  -3   3  -4 4772.50 310.499   6
  -3   3  -5 17644.1 559.094  32
   3  -3   5 17529.8 762.278   5
  -3   3  -5 18065.0 585.752  28
   3  -3   5 18707.5 858.439   7
  -3   3  -5 18441.7 660.730   6
   3  -3   5 17864.6 765.374   1
   3  -3   6 1209.49 205.233   1
   3  -3   6 1295.99 208.530   5
  -3   3  -6 1176.51 148.704  32
  -3   3  -6 1222.99 155.875  28
  -3   3  -6 1210.08 170.733   6
   3  -3   6 1311.58 220.334   7
   3  -3   7 3076.37 317.771   4
   3  -3   7 2969.25 337.191   5
  -3   3  -7 2947.66 247.023  32
  -3   3  -7 3154.34 259.482  28
   3  -3   7 2811.33 331.331   1
   3  -3   7 2942.52 339.803   7
  -3   3  -7 2875.90 274.684   6
  -3   3  -8 100.095 43.9675   6
  -3   3  -8 141.736 57.2804  32
   3  -3   8 81.6690 77.1468   5
  -3   3  -8 129.440 47.5906  28
   3  -3   8 24.1785 67.3474   7
  -3   3  -8 212.010 78.7247  30
   3  -3   9 7100.03 221.800  37
   3  -3   9 6565.25 214.339  47
   3  -3   9 6215.01 186.562  26
   3  -3   9 6914.38 578.439   5
  -3   3  -9 6848.17 420.545  32
  -3   3  -9 7453.07 473.571  30
  -3   3  -9 6494.46 400.627  28
   3  -3   9 7089.01 602.050   7
   3  -3  10 11849.1 279.703  12
   3  -3  10 11406.3 270.949  26
   3  -3  10 12322.7 308.240  47
   3  -3  10 12271.4 303.556  40
   3  -3  10 12506.9 304.135  21
   3  -3  10 11911.5 277.815  22
   3  -3  11 4272.44 158.585  12
   3  -3  11 3919.29 149.479  23
   3  -3  11 4242.71 156.577  22
   3  -3  11 4108.73 154.635  26
   3  -3  11 4320.34 174.582  40
   3  -3  11 4587.52 177.507  21
   3  -3  12 1034.58 74.4115  26
   3  -3  12 1245.37 93.1929  40
   3  -3  12 1014.80 73.3219  23
   3  -3  12 1102.57 76.4973  22
   3  -3  12 1269.60 91.5532  21
   3  -3  12 1060.11 75.7551  12
   3  -3  13 666.467 59.3509  26
   3  -3  13 549.846 51.7735  23
   3  -3  13 555.944 61.2536  40
   3  -3  14 139.359 26.9999  26
   3  -3  14 77.2757 22.1938  24
   3  -3  14 105.992 21.7782  23
   3  -3  15 69.3294 18.0526  24
   3  -3  15 26.3329 15.4827  26
  -3   2  14 396.831 35.2316  24
  -3   2  14 332.002 34.1637  27
  -3   2  13 23.0538 18.3714  27
  -3   2  13 9.71593 15.1292  24
  -3   2  12 1990.63 114.825  27
  -3   2  12 1986.92 101.774  24
  -3   2  12 2240.44 97.0555  23
  -3   2  11 51.4706 26.0327  27
  -3   2  11 59.9804 23.5481  44
  -3   2  11 46.5432 18.5980  24
  -3   2  11 49.3960 20.7725  23
  -3   2  10 6447.88 196.558  24
  -3   2  10 6251.51 220.404  27
  -3   2  10 6705.78 219.545  49
  -3   2  10 6864.13 185.027  23
  -3   2  10 6302.59 208.132  44
  -3   2   9 6508.41 190.494  24
  -3   2   9 6312.72 214.790  27
  -3   2   9 6504.56 213.085  49
  -3   2   9 6532.31 208.105  44
  -3   2   9 7045.02 181.795  23
  -3   2   8 21934.4 1026.30  35
   3  -2  -8 21469.2 901.128   3
   3  -2  -8 22396.8 960.432  33
   3  -2  -8 23121.1 786.370  29
  -3   2   8 23216.7 1093.97   8
  -3   2   7 777.178 186.620   8
  -3   2   7 788.330 177.864  35
   3  -2  -7 767.983 157.824  33
   3  -2  -7 671.853 144.837   3
   3  -2  -7 695.640 125.523  29
  -3   2   6 3481.14 358.434  35
   3  -2  -6 3092.58 281.782   3
   3  -2  -6 3507.54 311.936  33
   3  -2  -6 3473.12 254.576  29
  -3   2   6 3447.04 361.916   8
  -3   2   5 11620.8 612.564  35
   3  -2  -5 11429.0 509.944   3
   3  -2  -5 11836.4 536.283  33
   3  -2  -5 11347.0 439.172  29
  -3   2   5 10587.5 599.983   8
  -3   2   4 31640.4 983.501  35
   3  -2  -4 31365.4 830.336   3
   3  -2  -4 33604.4 895.963  33
   3  -2  -4 31284.0 733.938  29
  -3   2   4 31887.5 1004.33   8
   3  -2  -3 59638.4 1178.91   3
  -3   2   3 65034.3 1375.25  35
   3  -2  -3 65757.8 1263.16  33
   3  -2  -3 61190.6 1085.10  29
  -3   2   3 62247.6 1373.98   8
  -3   2   3 60932.8 1004.82   6
   3  -2  -2 68749.6 1223.39   3
   3  -2  -2 64043.4 1046.33   1
  -3   2   2 68424.9 1348.31  35
   3  -2  -2 69184.2 1269.46  33
   3  -2  -2 64091.9 1117.92  29
  -3   2   2 64202.8 1083.80   6
   3  -2  -1 11722.5 393.887   1
  -3   2   1 11992.3 463.881  35
  -3   2   1 10362.9 281.126  32
   3  -2  -1 11832.4 450.901  33
   3  -2  -1 12280.3 408.961  29
  -3   2   1 11399.0 378.221  28
   3  -2  -1 12486.7 450.080   3
  -3   2   1 11531.5 391.211   6
  -3   2   0 320629. 3826.06   6
  -3   2   0 319015. 3886.26  35
   3  -2   0 329250. 3996.66  33
  -3   2   0 302444. 3555.67  32
   3  -2   0 307920. 3795.37  29
  -3   2   0 322345. 3758.47  28
   3  -2   0 327831. 3897.34   1
   3  -2   0 332402. 4007.88   3
  -3   2  -1 25395.5 523.983  32
   3  -2   1 26397.0 741.061  33
   3  -2   1 26675.1 717.873   1
   3  -2   1 27181.4 787.374   3
  -3   2  -1 25139.3 646.759   6
  -3   2  -2 15361.2 508.258   6
   3  -2   2 15217.3 584.018  33
  -3   2  -2 16992.3 489.091  28
  -3   2  -2 15386.8 416.444  32
   3  -2   2 15825.1 577.069   1
   3  -2   2 16259.9 674.946   3
   3  -2   3 24530.5 779.056   1
   3  -2   3 23395.0 774.113  33
  -3   2  -3 24233.8 575.778  32
   3  -2   3 22959.6 560.414   9
  -3   2  -3 25376.4 631.168  28
   3  -2   3 24669.1 918.934   3
  -3   2  -3 22970.0 666.136   6
   3  -2   4 6809.52 422.747   5
   3  -2   4 6232.38 320.021   9
  -3   2  -4 6496.73 316.417  28
   3  -2   4 6833.43 420.782   1
   3  -2   4 6262.14 483.215   7
   3  -2   4 6076.45 456.440   3
  -3   2  -4 6033.02 289.297  32
  -3   2  -4 6111.01 342.961   6
   3  -2   5 16027.7 683.780   5
  -3   2  -5 15898.6 519.534  32
   3  -2   5 14984.8 585.635   9
  -3   2  -5 16381.7 543.578  28
   3  -2   5 16022.2 702.012   1
   3  -2   5 17222.9 803.008   7
  -3   2  -5 16380.5 609.188   6
   3  -2   6 24881.2 921.665   5
  -3   2  -6 24831.7 710.464  32
  -3   2  -6 26527.6 771.081  30
   3  -2   6 25436.3 862.601   9
  -3   2  -6 26249.4 731.914  28
  -3   2  -6 27781.8 850.326   6
   3  -2   6 26043.2 1016.12   7
   3  -2   7 231.424 89.6087   4
  -3   2  -7 118.555 41.8364  32
   3  -2   7 406.726 122.376   5
  -3   2  -7 231.827 77.1863  30
   3  -2   7 200.944 74.8518   9
  -3   2  -7 204.035 66.7885  28
   3  -2   7 311.683 123.969   7
  -3   2  -8 79.0852 55.6530   6
  -3   2  -8-137.486 62.2589  32
   3  -2   8-0.80369 48.2555   5
  -3   2  -8-33.9693 45.1309  30
   3  -2   8-6.80239 70.8495   9
  -3   2  -8 72.7715 57.5898  28
   3  -2   8-57.3435 42.5834   4
   3  -2   8-6.58722 52.5011   7
   3  -2   9 16342.4 329.839  12
  -3   2  -9 16625.9 664.884  32
   3  -2   9 16125.6 857.752   5
  -3   2  -9 16245.5 700.075  30
   3  -2   9 16507.5 886.855   9
   3  -2   9 16833.6 361.236  47
   3  -2   9 15731.8 913.883   7
   3  -2   9 15194.8 312.004  26
   3  -2   9 16857.1 358.832  21
   3  -2   9 16323.9 329.543  22
   3  -2   9 15900.1 350.755  40
   3  -2  10 12292.1 284.192  12
   3  -2  10 11629.7 270.440  26
   3  -2  10 12842.7 316.045  47
   3  -2  10 12417.4 308.809  40
   3  -2  10 12142.0 282.686  22
   3  -2  10 12533.7 310.265  21
   3  -2  11 3564.68 142.810  26
   3  -2  11 3824.27 164.806  21
   3  -2  11 3154.36 130.733  23
   3  -2  11 3723.96 163.576  40
   3  -2  11 3565.63 144.017  22
   3  -2  11 3512.44 143.009  12
   3  -2  12 6356.22 188.568  26
   3  -2  12 6158.02 186.429  22
   3  -2  12 6558.69 217.129  40
   3  -2  12 6126.35 186.221  12
   3  -2  13 336.980 43.5243  26
   3  -2  13 258.905 34.9678  22
   3  -2  13 250.222 33.0436  23
   3  -2  14 243.681 35.4825  24
   3  -2  14 296.599 34.1564  26
   3  -2  14 262.142 29.6775  23
   3  -2  15-16.8265 13.4758  26
   3  -2  15-7.79883 14.0111  24
  -3   1  15 59.4048 15.6791  24
  -3   1  14 869.657 60.0669  27
  -3   1  14 964.703 60.8765  24
  -3   1  13 234.447 38.5157  27
  -3   1  13 241.060 34.6208  23
  -3   1  13 236.335 35.8111  24
  -3   1  12 3867.38 166.545  27
  -3   1  12 3953.73 148.117  24
  -3   1  12 4208.25 140.563  23
  -3   1  11 2983.92 132.000  24
  -3   1  11 3127.93 150.773  27
  -3   1  11 3210.62 124.518  23
  -3   1  10 197.876 35.7193  44
  -3   1  10 262.648 39.8365  19
  -3   1  10 232.273 42.0890  49
  -3   1  10 229.583 33.0337  23
  -3   1  10 188.006 32.6229  24
  -3   1  10 216.117 40.0906  27
  -3   1   9 24861.6 448.406  49
  -3   1   9 26761.3 420.017  19
  -3   1   9 24344.2 458.797  27
   3  -1  -9 20067.4 966.855  33
   3  -1  -9 20589.1 750.813  29
  -3   1   9 24263.5 445.219  44
  -3   1   9 25188.5 404.114  23
  -3   1   9 20868.6 1017.35  35
  -3   1   9 24420.1 421.089  24
  -3   1   8 3628.51 392.511  35
   3  -1  -8 3067.81 324.929   3
   3  -1  -8 3367.83 344.074  33
   3  -1  -8 3735.73 282.131  29
  -3   1   8 3548.75 408.556   8
  -3   1   7 276.121 96.1966  35
   3  -1  -7 348.409 103.501  33
   3  -1  -7 277.835 94.7149   3
   3  -1  -7 269.967 74.0464  29
  -3   1   7 342.870 124.570   8
  -3   1   6 5833.01 436.366  35
   3  -1  -6 6069.28 378.341   3
   3  -1  -6 6034.68 379.738  33
   3  -1  -6 6036.64 305.790  29
  -3   1   6 5887.58 455.658   8
  -3   1   5 56020.6 1367.19  35
   3  -1  -5 56761.9 1204.68   3
   3  -1  -5 56772.0 1212.95  33
   3  -1  -5 55985.0 1016.22  29
  -3   1   5 59552.0 1442.75   8
  -3   1   4 162422. 2533.08  35
   3  -1  -4 153212. 2260.33   3
   3  -1  -4 151610. 2278.57  33
   3  -1  -4 154729. 2037.27  29
  -3   1   4 165008. 2595.71   8
  -3   1   3 45405.7 1060.79  35
   3  -1  -3 41873.8 908.199   3
  -3   1   3 42589.9 757.941  34
   3  -1  -3 43473.6 940.671  33
   3  -1  -3 44595.0 779.367  29
  -3   1   3 45155.8 1072.89   8
  -3   1   3 44230.8 741.883   6
   3  -1  -2 1291.02 135.103   3
   3  -1  -2 1484.94 148.128  33
  -3   1   2 1307.09 150.014  35
   3  -1  -2 1323.04 109.666  29
   3  -1  -2 1410.01 90.1984   1
  -3   1   2 1249.18 110.531   6
   3  -1  -1 8713.40 363.902   3
  -3   1   1 8350.11 356.532  35
   3  -1  -1 8026.47 348.500  33
  -3   1   1 8431.32 275.579  32
   3  -1  -1 7920.89 274.318  29
  -3   1   1 8495.57 328.616  28
  -3   1   1 8272.64 307.001   6
   3  -1  -1 8348.34 287.154   1
  -3   1   0 56249.6 881.886  32
  -3   1   0 56754.4 986.065  35
  -3   1   0 52004.6 961.587  28
   3  -1   0 56202.0 1089.78  33
  -3   1   0 50894.3 959.103   6
   3  -1   0 57179.9 1006.57   1
   3  -1   0 57266.7 1119.53   3
  -3   1  -1 1834.38 131.805  35
   3  -1   1 1852.89 182.958  33
  -3   1  -1 2157.98 141.322  32
  -3   1  -1 1915.94 151.237  28
   3  -1   1 2086.58 213.794   3
  -3   1  -1 1999.24 162.373   6
   3  -1   1 1893.24 171.899   1
  -3   1  -2 152918. 1873.19  35
  -3   1  -2 158201. 2036.52  32
   3  -1   2 150981. 2367.73  33
  -3   1  -2 156702. 1998.16  30
  -3   1  -2 154498. 2107.51  28
  -3   1  -2 153157. 2183.67   6
   3  -1   2 160143. 2635.79   3
   3  -1   2 161198. 1938.33   2
  -3   1  -3 1892.00 147.803  30
  -3   1  -3 1870.81 158.615  28
   3  -1   3 1997.64 209.377   1
   3  -1   3 1726.66 229.775   3
  -3   1  -3 1753.91 171.777   6
   3  -1   4 12357.7 532.488   5
  -3   1  -4 12360.9 423.176  32
  -3   1  -4 11656.1 418.290  30
   3  -1   4 12140.6 503.389   9
  -3   1  -4 12133.2 433.629  28
  -3   1  -4 12638.7 499.451   6
   3  -1   4 12744.6 665.090   7
   3  -1   5 29459.7 917.547   5
  -3   1  -5 30809.0 752.978  32
  -3   1  -5 30705.9 769.687  30
   3  -1   5 30241.4 923.842   9
  -3   1  -5 32882.1 778.363  28
   3  -1   5 28849.8 955.348   4
  -3   1  -5 31693.1 878.118   6
   3  -1   5 29912.9 1056.06   7
  -3   1  -6 4230.04 327.303   6
   3  -1   6 4227.78 368.090   4
  -3   1  -6 4059.56 269.743  32
  -3   1  -6 3992.74 279.152  30
   3  -1   6 4080.27 358.333   9
  -3   1  -6 4016.72 262.847  28
   3  -1   6 4093.24 391.241   7
   3  -1   6 4619.57 369.405   5
   3  -1   7 1067.97 192.773   5
  -3   1  -7 1297.15 161.951  32
  -3   1  -7 971.052 147.169  30
   3  -1   7 1164.32 213.779   9
  -3   1  -7 1171.55 146.472  28
   3  -1   7 1124.21 200.408   4
   3  -1   7 1172.35 224.332   7
  -3   1  -7 1112.28 175.856   6
  -3   1  -8 448.025 123.084   6
  -3   1  -8 310.196 89.9789  32
   3  -1   8 509.059 140.993   5
  -3   1  -8 424.645 108.401  30
   3  -1   8 232.469 109.633   9
   3  -1   8 385.679 123.544   4
   3  -1   8 421.150 154.580   7
   3  -1   9 183.343 32.6200  12
   3  -1   9 216.863 42.3181  36
   3  -1   9 65.3811 57.0497   9
   3  -1   9 171.847 30.8086  26
   3  -1   9 174.067 32.9208  22
   3  -1   9 156.741 35.0533  40
   3  -1   9 194.711 40.2306  21
   3  -1  10 4190.09 150.234  26
   3  -1  10 4540.30 163.541  22
   3  -1  10 4607.89 182.290  40
   3  -1  10 4660.15 184.393  21
   3  -1  10 4570.50 163.650  12
   3  -1  11 5000.20 156.279  23
   3  -1  11 5604.08 182.429  22
   3  -1  11 5330.06 174.502  26
   3  -1  11 5718.55 206.413  40
   3  -1  11 5595.23 183.182  12
   3  -1  12 6374.84 171.810  23
   3  -1  12 6916.91 195.489  26
   3  -1  12 6895.90 197.705  22
   3  -1  12 6970.59 224.984  40
   3  -1  13 36.3493 18.9428  26
   3  -1  13 14.9927 16.0036  22
   3  -1  14 1721.43 77.3305  26
   3  -1  14 1344.98 75.5978  24
   3  -1  15 192.349 22.7071  26
   3  -1  15 129.088 20.4308  24
  -3   0  15 1990.20 79.0922  24
  -3   0  14 2168.13 96.5919  24
  -3   0  14 2241.27 90.8199  23
  -3   0  13 445.929 53.0064  27
  -3   0  13 529.619 52.8062  24
  -3   0  13 486.985 46.6785  23
  -3   0  12 20389.9 387.419  24
  -3   0  12 20983.1 372.095  23
  -3   0  12 20737.5 426.631  27
  -3   0  11 274.297 47.4295  27
  -3   0  11 214.642 33.5274  24
  -3   0  11 314.769 38.8649  23
  -3   0  11 244.348 37.2231  19
  -3   0  10 16523.5 318.746  19
  -3   0  10 16095.9 357.620  27
  -3   0  10 15602.9 339.889  44
  -3   0  10 15564.3 321.710  24
  -3   0  10 15195.6 298.544  23
   3   0  -9 40855.1 1335.27   3
   3   0  -9 41669.9 1307.73  33
   3   0  -9 44697.3 1084.16  29
  -3   0   9 47753.9 1622.94   8
  -3   0   9 50810.1 1567.38  35
  -3   0   8 14367.5 759.643  35
   3   0  -8 12889.0 648.497   3
   3   0  -8 13237.7 631.763  33
   3   0  -8 14144.2 523.480  29
  -3   0   8 14571.5 809.029   8
  -3   0   7 11297.5 631.784  35
   3   0  -7 10232.8 521.013   3
   3   0  -7 11031.2 519.662  33
   3   0  -7 10671.4 413.962  29
  -3   0   7 11293.4 653.250   8
  -3   0   6 85422.2 1802.14  35
   3   0  -6 84683.5 1578.17   3
   3   0  -6 86292.9 1564.43  33
   3   0  -6 80930.5 1311.81  29
  -3   0   6 88417.6 1875.18   8
  -3   0   5 182558. 2794.10   8
  -3   0   5 176142. 2725.69  35
   3   0  -5 165996. 2439.39   3
   3   0  -5 178972. 2463.48  33
   3   0  -5 160574. 2137.37  29
  -3   0   4 35880.1 957.072  35
   3   0  -4 38435.3 855.438   3
  -3   0   4 37227.1 737.892  34
   3   0  -4 39893.7 856.884  33
   3   0  -4 36938.9 660.143  29
  -3   0   4 38886.3 1016.12   8
  -3   0   3 22801.4 694.040   8
   3   0  -3 22232.9 592.011   3
  -3   0   3 22432.8 548.708  34
   3   0  -3 22278.9 588.263  33
   3   0  -3 22227.3 435.534  29
  -3   0   3 21872.0 666.748  35
  -3   0   3 22914.6 468.112   6
   3   0  -2 9326.77 357.681   3
  -3   0   2 8733.98 375.961  35
   3   0  -2 9097.51 356.421  33
   3   0  -2 8662.61 233.706  29
  -3   0   2 9371.01 395.262   8
  -3   0   2 8665.78 296.491   6
  -3   0   2 8744.71 324.238  34
  -3   0   1 52699.8 972.700  35
   3   0  -1 54821.4 1008.56  33
  -3   0   1 49761.4 897.167  32
  -3   0   1 51532.7 640.925  30
  -3   0   1 54856.6 926.060   6
   3   0  -1 53963.5 1025.30   3
  -3   0   0 52254.6 905.492  32
  -3   0   0 50679.4 894.301  35
   3   0   0 53191.0 1060.37  33
  -3   0   0 52580.7 742.434  30
  -3   0   0 55401.3 989.423  28
  -3   0   0 52921.2 958.290   6
   3   0   0 56881.1 1147.83   3
  -3   0  -1 124893. 1564.52  35
   3   0   1 118580. 1902.47  33
   3   0   1 119751. 1648.27   2
  -3   0  -1 125296. 1676.42  32
  -3   0  -1 119826. 1535.71  30
  -3   0  -1 117066. 1724.12  28
   3   0   1 124497. 2117.83   3
  -3   0  -1 110387. 1728.01   6
  -3   0  -2 43792.9 835.970  32
  -3   0  -2 41008.3 756.065  30
  -3   0  -2 44192.4 865.532  28
   3   0   2 46092.0 1043.72   2
  -3   0  -2 43213.3 916.017   6
   3   0   2 41542.1 1158.44   3
   3   0   3 3805.07 354.675   7
   3   0   3 3232.99 233.749   5
  -3   0  -3 3588.18 216.304  32
  -3   0  -3 3386.31 199.781  30
  -3   0  -3 3606.60 222.039  28
  -3   0  -3 3209.44 236.971   6
   3   0   4 8968.05 419.924   5
  -3   0  -4 10013.3 390.154  32
  -3   0  -4 9260.11 370.988  30
  -3   0  -4 9331.54 374.055  28
   3   0   4 9416.11 499.726   4
   3   0   4 8618.21 530.421   7
  -3   0  -4 9671.10 446.610   6
  -3   0  -5 28727.8 739.748  32
  -3   0  -5 27991.8 739.058  30
  -3   0  -5 27628.8 705.820  28
   3   0   5 27271.3 932.741   9
   3   0   5 26007.7 972.595   7
   3   0   5 28228.8 831.485   5
  -3   0  -5 29205.7 873.047   6
   3   0   5 29948.2 985.765   4
   3   0   6 4298.61 331.307   5
  -3   0  -6 4311.55 284.038  32
  -3   0  -6 4129.25 284.434  30
   3   0   6 4147.21 389.017   9
  -3   0  -6 4154.21 264.387  28
  -3   0  -6 4334.71 342.020   6
   3   0   6 4266.41 381.884   4
   3   0   6 4154.88 396.840   7
  -3   0  -7 2980.93 252.365  32
  -3   0  -7 2973.48 259.974  30
   3   0   7 2748.40 346.798   9
   3   0   7 2766.77 324.322   4
   3   0   7 2166.10 308.810   7
  -3   0  -7 2719.86 289.428   6
  -3   0  -8 9320.06 475.429  32
  -3   0  -8 9210.82 500.280  30
   3   0   8 8578.54 664.865   9
  -3   0  -8 9699.74 479.619  29
   3   0   8 8599.80 651.175   7
   3   0   8 9640.05 640.079   4
   3   0   9 383.283 53.9444  36
   3   0   9 349.653 41.0399  26
   3   0   9 382.757 55.9322  40
   3   0   9 418.525 49.3882  22
   3   0   9 400.917 56.3221  21
   3   0   9 469.295 51.7789  12
   3   0  10 3076.94 148.835  40
   3   0  10 3135.67 135.520  22
   3   0  10 3042.34 152.697  21
   3   0  10 2898.22 120.966  26
   3   0  10 2958.62 142.059  36
   3   0  11-10.7155 26.4008  36
   3   0  11 39.5929 19.9989  26
   3   0  11 24.4411 18.6586  22
   3   0  11 10.4135 30.1740  40
   3   0  12-44.7212 29.0961  26
   3   0  12-0.57402 21.1656  22
   3   0  13 87.7271 22.3979  22
   3   0  13 76.9018 25.5509  24
   3   0  13 52.6001 17.3397  26
   3   0  14 255.511 28.8338  26
   3   0  14 255.816 31.6240  24
  -3  -1  15 692.534 48.4916  24
  -3  -1  15 735.454 48.5404  23
  -3  -1  14 4269.28 149.046  27
  -3  -1  14 4575.77 144.311  24
  -3  -1  14 4666.37 139.372  23
  -3  -1  13 5465.75 170.628  19
  -3  -1  13 4909.96 178.059  27
  -3  -1  13 4986.50 163.934  24
  -3  -1  13 5078.11 156.560  23
  -3  -1  12 26697.1 449.691  19
  -3  -1  12 25612.5 483.415  27
  -3  -1  12 25675.9 430.127  23
  -3  -1  12 25923.8 447.116  24
  -3  -1  11 837.057 65.8465  19
  -3  -1  11 722.840 57.9654  23
  -3  -1  11 846.198 67.1799  24
  -3  -1  11 877.108 77.6199  27
  -3  -1  10 231.239 40.6318  27
  -3  -1  10 194.736 30.4910  23
  -3  -1   9 1058.61 215.887  35
   3   1  -9 791.323 170.774   3
  -3  -1   8 131955. 2549.16  35
  -3  -1   8 131884. 2643.87   8
  -3  -1   7 1679.86 231.968  35
   3   1  -7 1589.32 191.001   3
   3   1  -7 1433.11 166.361  33
   3   1  -7 1438.61 136.695  29
  -3  -1   7 1952.38 260.698   8
  -3  -1   6 46347.2 1227.01  35
   3   1  -6 44329.5 1012.64   3
   3   1  -6 44972.8 957.659  33
  -3  -1   6 48357.0 1259.01   8
  -3  -1   5 76440.5 1581.00  35
   3   1  -5 82949.1 1406.79   3
  -3  -1   5 76317.8 1323.60  34
   3   1  -5 82264.6 1360.35  33
   3   1  -5 81364.6 1133.83  29
  -3  -1   5 84630.4 1648.52   8
  -3  -1   4 993.546 144.062   8
   3   1  -4 1035.23 119.995   3
  -3  -1   4 1018.25 145.521  35
   3   1  -4 866.397 104.792  33
  -3  -1   4 985.980 118.277  34
   3   1  -3 32286.3 707.318   3
  -3  -1   3 30262.7 781.348  35
  -3  -1   3 29666.0 705.220  34
  -3  -1   3 31762.2 805.201   8
  -3  -1   3 29235.3 592.584   6
   3   1  -3 31929.1 679.553  33
   3   1  -2 11125.2 396.516   3
   3   1  -2 10389.6 364.683  33
  -3  -1   2 10692.5 414.246  35
  -3  -1   2 11329.8 404.691  34
  -3  -1   2 10258.9 344.250   6
  -3  -1   2 11585.3 419.388   8
   3   1  -1 20099.0 532.471   2
  -3  -1   1 21436.1 571.177  35
   3   1  -1 20407.1 558.725  33
  -3  -1   1 20808.5 561.274  32
  -3  -1   1 21999.7 407.720  30
  -3  -1   1 22130.0 587.695  34
  -3  -1   1 20933.7 544.238   6
   3   1  -1 21872.7 621.037   3
  -3  -1   0 1087.74 109.804  35
   3   1   0 1022.73 124.640  33
  -3  -1   0 843.881 103.031  32
  -3  -1   0 951.971 82.1415  30
   3   1   0 1168.11 156.035   3
  -3  -1   0 907.794 112.663   6
  -3  -1  -1 4378.21 240.822  32
   3   1   1 4607.18 204.828   5
  -3  -1  -1 4218.08 196.831  30
   3   1   1 4417.24 336.943   3
  -3  -1  -1 3690.80 240.056   6
   3   1   1 4799.67 330.026   2
   3   1   2 98010.6 1432.58   5
  -3  -1  -2 106702. 1599.05  32
   3   1   2 107883. 1459.69  31
  -3  -1  -2 99158.7 1470.00  30
  -3  -1  -2 103173. 1307.93  29
  -3  -1  -2 101601. 1580.22  28
   3   1   2 109232. 2091.12   7
   3   1   2 103413. 1804.01   4
   3   1   2 111976. 3263.65   2
  -3  -1  -2 102596. 1688.93   6
   3   1   3 164482. 2621.21   4
  -3  -1  -3 171805. 2256.70  30
  -3  -1  -3 161406. 2062.51  29
  -3  -1  -3 167661. 2298.22  28
   3   1   3 159030. 3175.29   2
   3   1   3 165073. 2796.74   7
  -3  -1  -3 177301. 2346.29  32
  -3  -1  -3 162311. 2470.25   6
  -3  -1  -4 8036.90 360.087  30
  -3  -1  -4 8116.83 306.894  29
  -3  -1  -4 7733.58 349.333  28
   3   1   4 8255.75 490.546   4
   3   1   4 7183.89 481.111   7
  -3  -1  -4 7231.01 414.400   6
  -3  -1  -5 5673.65 324.489  30
  -3  -1  -5 6180.50 293.056  29
  -3  -1  -5 5870.95 311.172  28
   3   1   5 6054.08 443.910   4
   3   1   5 6670.61 484.386   7
  -3  -1  -5 6460.36 415.640   6
  -3  -1  -5 6369.26 345.869  32
  -3  -1  -6 1553.84 180.684  32
  -3  -1  -6 1698.82 190.585  30
  -3  -1  -6 1622.58 161.689  29
   3   1   6 1661.60 263.913   9
   3   1   6 1547.47 242.945   4
   3   1   6 1800.19 267.537   7
   3   1   7 58.3699 78.4771   4
  -3  -1  -7 85.8109 52.3617  32
  -3  -1  -7 36.9756 25.6437  30
   3   1   7 31.6656 53.5930   9
   3   1   7 214.500 105.386   7
   3   1   8 13231.7 318.985  36
  -3  -1  -8 13631.0 604.510  32
   3   1   8 12870.6 781.675   4
   3   1   8 13566.3 319.733  40
   3   1   8 13231.5 291.646  22
   3   1   8 13141.1 271.678  26
   3   1   8 14522.2 336.265  21
   3   1   8 13784.9 296.565  12
   3   1   9 2749.88 115.341  26
   3   1   9 2808.17 140.656  40
   3   1   9 2959.78 129.285  22
   3   1   9 3175.60 153.673  21
   3   1   9 2738.56 139.175  36
   3   1  10 1799.59 111.328  36
   3   1  10 1761.02 91.8210  26
   3   1  10 1702.32 110.588  40
   3   1  10 1714.36 99.7346  22
   3   1  11 1867.78 110.135  36
   3   1  11 2041.02 97.6292  26
   3   1  11 2134.08 107.922  22
  -3  -1 -11 1952.81 93.9311  46
   3   1  12 2538.81 119.007  36
   3   1  12 2254.59 110.316  24
   3   1  12 2665.09 106.551  26
   3   1  12 2643.28 112.454  22
   3   1  13 393.337 37.6812  26
   3   1  13 343.814 40.1841  24
   3   1  14 557.462 41.5809  24
   3   1  14 700.041 41.0626  26
  -3  -2  16 11554.9 200.060  23
  -3  -2  15 517.074 41.3749  24
  -3  -2  15 532.949 43.1785  23
  -3  -2  14 4979.83 155.393  19
  -3  -2  14 4173.47 147.259  27
  -3  -2  14 4654.48 142.523  23
  -3  -2  14 4519.67 140.517  24
  -3  -2  13 8307.48 217.133  19
  -3  -2  13 7954.47 206.705  24
  -3  -2  13 8180.00 205.389  23
  -3  -2  12 8814.22 227.889  19
  -3  -2  12 8841.60 249.752  27
  -3  -2  12 9109.95 220.617  23
  -3  -2  12 8618.82 217.620  24
  -3  -2  11 3857.99 159.060  27
  -3  -2  11 3654.41 137.652  19
  -3  -2  11 3695.72 131.002  23
  -3  -2  11 3798.13 135.137  24
  -3  -2  10 834.255 62.1789  19
  -3  -2  10 916.509 200.386  35
   3   2 -10 965.730 182.573   3
  -3  -2  10 953.382 76.2782  27
  -3  -2  10 955.837 62.0000  23
  -3  -2   9 80167.5 1982.53  35
   3   2  -9 68514.5 1560.66   3
  -3  -2   8 127.177 80.2244  35
   3   2  -8 241.151 77.7778   3
  -3  -2   8 260.651 121.188   8
  -3  -2   7 21624.2 864.488  35
   3   2  -7 22710.2 702.796   3
  -3  -2   7 22104.8 880.418   8
  -3  -2   6 10878.2 565.038  35
   3   2  -6 12653.7 470.587   3
  -3  -2   6 10784.3 462.799  34
  -3  -2   6 11726.6 576.864   8
   3   2  -5 8539.11 354.340   3
  -3  -2   5 7830.40 443.906  35
  -3  -2   5 7736.23 381.922  34
  -3  -2   5 8684.97 449.894   8
  -3  -2   4 15778.3 606.205  35
  -3  -2   4 17543.9 577.251  34
   3   2  -4 16449.8 435.535  33
  -3  -2   4 16922.3 586.200   8
   3   2  -4 18375.7 500.231   3
  -3  -2   3 219.275 67.0504  35
  -3  -2   3 203.150 60.1276  34
   3   2  -3 269.203 54.1759  33
   3   2  -3 174.424 49.7128   3
   3   2  -3 234.717 61.1973   2
  -3  -2   3 395.500 76.5181   8
   3   2  -3 243.090 51.2001   4
  -3  -2   2 17358.5 570.880  35
  -3  -2   2 16747.2 546.600  34
   3   2  -2 16046.3 443.833  33
  -3  -2   2 17027.7 480.067   8
   3   2  -2 16789.8 489.450   4
   3   2  -2 17888.4 525.174   3
   3   2  -2 16160.3 517.254   2
  -3  -2   1 34054.1 783.199  35
  -3  -2   1 33621.4 818.467  34
  -3  -2   1 34713.5 661.962   8
  -3  -2   1 32022.5 642.510  30
   3   2  -1 35461.6 874.984   3
   3   2  -1 36692.3 866.870   2
   3   2  -1 32161.3 773.611   4
   3   2   0 405.810 81.8161   4
  -3  -2   0 587.831 99.3488  34
   3   2   0 581.326 118.163   3
  -3  -2   0 486.070 86.0485  32
   3   2   0 512.735 123.728   2
  -3  -2   0 590.647 78.0604  30
  -3  -2   0 574.080 97.3532   6
  -3  -2  -1 8719.16 393.188  34
  -3  -2  -1 8427.02 377.230  32
   3   2   1 8970.83 385.661  31
  -3  -2  -1 8447.80 325.571  30
   3   2   1 8855.65 430.480   4
   3   2   1 9712.08 866.576   2
  -3  -2  -1 7868.29 386.631   6
   3   2   1 9298.64 511.370   7
  -3  -2  -2 3961.18 269.683  34
   3   2   2 3175.84 666.317   2
  -3  -2  -2 4197.32 266.799  32
  -3  -2  -2 4133.70 238.504  30
   3   2   2 4066.06 309.438   4
   3   2   2 3761.13 323.580   7
  -3  -2  -3 9791.74 441.519  34
  -3  -2  -3 9521.36 423.310  32
  -3  -2  -3 10035.9 409.878  30
   3   2   3 9551.98 514.823   4
   3   2   3 10834.2 651.760   2
   3   2   3 9312.15 521.583   7
  -3  -2  -4 104625. 1796.42  34
  -3  -2  -4 104947. 1757.84  32
  -3  -2  -4 102468. 1720.44  30
   3   2   4 105718. 2092.82   4
  -3  -2  -5 4783.89 331.747  34
  -3  -2  -5 4477.49 310.067  32
  -3  -2  -5 4983.84 330.072  30
   3   2   5 4994.43 429.015   7
   3   2   5 4942.78 425.992   4
  -3  -2  -6 21333.8 734.603  32
  -3  -2  -6 21860.3 763.772  30
   3   2   6 21272.4 1017.40   9
   3   2   6 20114.1 943.039   7
   3   2   6 21784.8 975.867   4
   3   2   7 5327.59 504.006   4
   3   2   7 5021.38 186.557  36
  -3  -2  -7 5342.31 370.041  32
  -3  -2  -7 5419.46 392.726  30
   3   2   7 4967.91 524.649   9
   3   2   7 5189.32 154.183  26
   3   2   7 5270.12 504.915   7
   3   2   7 5223.59 181.660  40
   3   2   7 5195.60 165.611  22
   3   2   7 5620.11 194.566  21
   3   2   8 3438.07 157.358  36
   3   2   8 3280.68 144.872  16
   3   2   8 3529.40 140.519  22
   3   2   8 3668.89 157.233  40
   3   2   8 3556.17 129.088  26
   3   2   9 224.086 43.1875  36
   3   2   9 196.731 32.0055  26
  -3  -2  -9 246.540 37.0985  46
   3   2   9 338.252 45.9677  22
   3   2   9 203.546 42.8002  40
   3   2  10 7576.70 241.556  36
   3   2  10 8133.22 204.977  26
  -3  -2 -10 8073.63 212.088  46
   3   2  10 8090.64 223.338  22
  -3  -2 -11 2003.15 91.9836  46
   3   2  11 1891.05 102.781  24
   3   2  11 2037.00 113.769  36
   3   2  11 2248.67 108.274  22
   3   2  11 2232.05 97.7506  26
   3   2  12 657.513 50.1169  26
  -3  -2 -12 681.749 52.3954  38
   3   2  12 518.179 49.3186  24
  -3  -2 -13 1087.75 53.0645  38
   3   2  13 1121.62 61.8770  24
  -3  -3  16 304.244 29.8221  23
  -3  -3  15 11023.0 231.508  19
  -3  -3  15 10540.7 216.051  23
  -3  -3  14 57.1712 25.5967  19
  -3  -3  14 73.7531 21.3854  23
  -3  -3  13 350.167 43.4308  19
  -3  -3  13 401.748 47.2841  27
  -3  -3  13 417.627 44.8435  23
  -3  -3  12 1737.95 95.8245  19
  -3  -3  12 1946.94 94.5431  23
  -3  -3  12 1994.39 110.356  27
  -3  -3  11 873.985 72.4158  27
  -3  -3  11 670.321 57.8779  19
  -3  -3  11 809.433 68.8722  14
  -3  -3  11 920.201 63.2563  23
  -3  -3  10 14543.1 313.135  27
  -3  -3  10 12948.3 278.209  19
  -3  -3  10 13059.5 793.103  35
  -3  -3  10 14221.3 308.260  14
   3   3  -9 15993.4 652.088   2
  -3  -3   9 16817.2 857.837  35
   3   3  -8 5680.54 377.786   2
  -3  -3   8 5792.98 469.085  35
   3   3  -7 15277.8 609.445   2
  -3  -3   7 15139.7 728.555  35
   3   3  -6 2966.15 250.922   2
  -3  -3   6 2890.85 294.192  35
  -3  -3   6 2900.99 262.716  34
  -3  -3   6 3114.28 290.257   8
   3   3  -5 9911.48 356.603   3
  -3  -3   5 9509.71 509.010  35
  -3  -3   5 9600.35 467.958  34
  -3  -3   5 9342.00 463.628   8
   3   3  -5 8901.66 424.421   2
   3   3  -4 19805.5 512.523   3
  -3  -3   4 19642.1 715.097  35
  -3  -3   4 19787.3 676.264  34
  -3  -3   4 18944.1 609.765   8
   3   3  -4 19230.9 639.910   2
  -3  -3   3 543.509 111.002  35
  -3  -3   3 442.012 100.557  34
  -3  -3   3 263.494 71.2094  10
   3   3  -3 487.040 102.345   2
  -3  -3   3 542.422 85.5005   8
   3   3  -3 524.800 76.5465   4
   3   3  -3 479.686 79.7235   3
  -3  -3   2 410.250 94.1163  34
   3   3  -2 322.924 72.0874   3
  -3  -3   2 355.191 75.0139  10
   3   3  -2 388.928 101.933   2
   3   3  -2 392.616 77.4055   4
  -3  -3   1 181102. 2607.26  34
   3   3  -1 186366. 2615.42  31
  -3  -3   1 181562. 2408.52  30
   3   3  -1 181400. 2517.22   4
   3   3   0 19615.0 687.927   7
  -3  -3   0 18656.6 636.178  34
   3   3   0 19236.6 724.562  31
  -3  -3   0 18650.6 555.683  30
   3   3   0 18255.4 632.334   4
   3   3   0 21014.9 1410.99   2
  -3  -3  -1 4401.97 304.820  34
   3   3   1 5059.99 918.637   2
  -3  -3  -1 4566.21 303.330  32
   3   3   1 4648.74 452.165  31
  -3  -3  -1 4934.68 284.749  30
   3   3   1 4384.40 320.474   4
   3   3   1 4909.45 335.446   7
   3   3   2 2179.24 407.596   2
  -3  -3  -2 2017.50 209.323  34
  -3  -3  -2 2004.38 205.522  32
  -3  -3  -2 2104.26 196.834  30
   3   3   2 1827.31 221.977   4
   3   3   2 1874.62 218.669   7
  -3  -3  -3 123524. 2109.28  34
  -3  -3  -3 124394. 2087.79  32
  -3  -3  -3 128751. 2051.86  30
   3   3   3 123189. 2337.42   4
   3   3   3 125021. 2285.99   7
  -3  -3  -4 15974.4 642.327  34
  -3  -3  -4 16000.2 629.395  32
  -3  -3  -4 17101.2 640.964  30
   3   3   4 16290.1 778.057   4
   3   3   4 15095.5 724.000   7
  -3  -3  -5 189.618 62.4114  32
  -3  -3  -5 3.46196 40.1460  30
   3   3   5 90.3320 68.1698   4
   3   3   5 106.679 70.6591   7
   3   3   6 6691.47 216.651  36
  -3  -3  -6 6261.05 418.743  32
  -3  -3  -6 6752.97 445.718  30
   3   3   6 6291.01 583.264   9
   3   3   6 6215.30 527.151   7
   3   3   6 6540.08 554.547   4
   3   3   6 6380.08 183.842  22
  -3  -3  -6 7556.70 200.114  46
   3   3   7 4993.39 192.552  36
   3   3   7 5160.05 188.193  16
   3   3   7 5194.60 155.635  26
   3   3   7 5056.55 169.147  22
   3   3   7 5254.73 184.451  40
  -3  -3  -7 5133.50 165.541  45
   3   3   7 4713.67 177.414  49
   3   3   8 68.3725 30.2090  36
   3   3   8 32.7035 18.0633  49
   3   3   8 53.8374 22.1572  16
   3   3   8 76.6393 20.9143  26
  -3  -3  -8 106.138 28.0580  46
   3   3   8 105.223 29.3218  22
   3   3   8 116.837 34.7616  40
   3   3   9 1159.41 94.9870  36
   3   3   9 1086.70 82.7104  16
   3   3   9 1113.29 84.8963  49
  -3  -3  -9 1276.98 82.9137  46
   3   3   9 1257.74 75.5007  26
   3   3   9 1240.24 83.6681  22
   3   3  10 4276.44 156.446  24
   3   3  10 5059.81 150.217  26
  -3  -3 -10 4508.14 150.415  46
   3   3  10 5081.53 168.253  22
   3   3  10 4983.15 185.513  36
  -3  -3 -11-3.16236 14.0857  38
   3   3  11-0.43053 14.8416  26
  -3  -3 -11-9.05853 14.4868  46
   3   3  11-27.2481 24.6494  24
  -3  -3 -12 176.384 25.2692  38
   3   3  12 142.320 25.0435  24
   3   3  12 186.465 26.4565  26
   3   3  13 1174.72 47.4140  26
  -3  -4  16 167.027 26.7343  19
  -3  -4  16 126.347 21.0615  23
  -3  -4  15 339.340 40.4195  19
  -3  -4  15 312.994 33.5531  23
  -3  -4  14 24.9674 14.5648  23
  -3  -4  14 21.4816 16.3635  19
  -3  -4  13 1702.83 93.7699  19
  -3  -4  13 1794.99 96.5141  27
  -3  -4  13 1960.38 91.5655  23
  -3  -4  13 1624.42 97.3213  14
  -3  -4  12 2398.87 113.366  19
  -3  -4  12 2672.18 107.894  23
  -3  -4  12 2584.83 121.220  27
  -3  -4  12 2612.28 126.270  14
  -3  -4  11 311.520 40.2175  19
  -3  -4  11 388.138 47.7478  27
  -3  -4  11 300.698 43.7166  14
  -3  -4  10 759.651 60.1871  19
   3   4 -10 815.155 164.598  31
  -3  -4  10 886.762 68.0121  27
  -3  -4  10 830.739 68.7215  14
   3   4  -9 5764.15 435.543  31
   3   4  -9 6428.89 440.187   2
   3   4  -8 10920.8 587.810  31
   3   4  -8 13466.6 627.634   2
  -3  -4   7 122.431 67.4943  34
   3   4  -7 117.370 70.4450  31
   3   4  -7 122.536 60.7427   2
  -3  -4   6 8028.69 477.921  34
   3   4  -6 7626.97 455.620  31
   3   4  -6 7695.14 449.622   2
  -3  -4   5 50001.9 1264.42  34
  -3  -4   5 50951.9 1274.60  10
   3   4  -5 48223.5 1214.12  31
   3   4  -5 49785.9 1236.66   2
  -3  -4   4 70.9663 52.7948  34
   3   4  -4 26.7137 49.9085  31
  -3  -4   4 39.8354 42.8181  10
   3   4  -4 94.2207 72.1860   2
  -3  -4   3 81917.4 1640.11  34
  -3  -4   3 80585.1 1548.18  10
   3   4  -3 85718.6 1730.55  31
   3   4  -3 83640.9 1945.24   2
   3   4  -2 13175.7 480.204   4
  -3  -4   2 14342.0 602.220  34
  -3  -4   2 13670.2 514.307  10
   3   4  -2 14836.6 683.018  31
   3   4  -2 14123.2 924.202   2
  -3  -4   1 27658.3 862.765  34
   3   4  -1 31236.9 1168.89  31
  -3  -4   1 28882.4 794.278  30
   3   4  -1 31187.3 1982.76   2
   3   4  -1 28974.0 813.678   4
  -3  -4   0 115.270 45.9233  34
   3   4   0 222.104 169.263  31
  -3  -4   0 81.8607 46.2237  30
   3   4   0 208.220 78.6129   4
  -3  -4  -1 57554.3 1328.96  34
  -3  -4  -1 60161.4 1291.38  30
   3   4   1 56319.1 1365.46   4
   3   4   2 765.775 205.711   2
  -3  -4  -2 609.165 125.049  34
  -3  -4  -2 613.972 120.896  30
   3   4   2 609.699 134.092   4
  -3  -4  -3 3850.75 323.985  34
  -3  -4  -3 4008.07 322.864  30
   3   4   3 3896.35 390.164   2
   3   4   3 3919.28 374.286   4
  -3  -4  -4 18364.1 744.646  30
   3   4   4 18900.8 896.710   4
   3   4   5 889.558 78.9726  16
   3   4   5 938.993 79.2005  36
  -3  -4  -5 906.530 170.502  30
   3   4   5 989.491 80.1224  49
  -3  -4  -5 1072.11 72.4304  46
   3   4   5 941.640 67.3485  22
   3   4   5 1034.02 219.173   4
   3   4   6 7466.30 235.681  36
   3   4   6 6717.73 223.420  16
  -3  -4  -6 7593.81 212.577  46
   3   4   6 7335.81 204.448  22
   3   4   6 7498.60 187.725  26
   3   4   6 6617.41 215.915  49
  -3  -4  -6 7180.66 205.144  45
   3   4   6 7104.16 209.828  40
   3   4   7 208.311 38.9923  16
   3   4   7 200.752 42.5837  36
  -3  -4  -7 197.917 36.1440  45
  -3  -4  -7 256.473 40.3460  46
   3   4   7 243.499 36.4640  26
   3   4   7 209.571 37.8889  22
   3   4   7 167.439 36.4002  49
   3   4   8 118.507 35.3330  16
   3   4   8 177.993 43.0997  36
   3   4   8 166.685 37.1772  22
   3   4   8 178.128 30.1423  26
   3   4   8 180.558 37.3066  49
  -3  -4  -8 159.798 33.8134  46
  -3  -4  -9 7101.81 202.330  38
   3   4   9 7135.93 228.935  36
   3   4   9 7252.51 204.781  22
   3   4   9 6201.63 200.615  16
   3   4   9 6949.31 178.577  26
  -3  -4  -9 6660.06 192.663  46
   3   4   9 6038.57 181.405  24
   3   4   9 6205.38 206.305  49
  -3  -4 -10 241.630 34.1482  38
   3   4  10 259.421 37.2306  16
   3   4  10 211.398 31.2038  24
  -3  -4 -10 212.411 29.7205  46
   3   4  10 216.640 30.0491  26
   3   4  10 199.158 33.4236  49
  -3  -4 -11 390.890 38.0053  38
   3   4  11 372.030 34.9910  24
   3   4  11 414.507 34.4276  26
  -3  -5  16 1199.92 62.3844  19
  -3  -5  15 6.88826 13.9332  19
  -3  -5  15 1.73311 10.3099  23
  -3  -5  14-8.00627 18.0012  19
  -3  -5  14 32.5310 24.7370  14
  -3  -5  13 4.89128 20.3891  27
  -3  -5  13-39.1897 31.5464  19
  -3  -5  13 41.0284 25.3018  14
  -3  -5  12 2331.80 112.939  19
  -3  -5  12 2461.55 115.546  27
  -3  -5  12 2718.43 131.437  14
  -3  -5  11 13.3735 19.1511  27
  -3  -5  11 26.2776 20.9858  19
  -3  -5  11 19.1478 21.0816  14
  -3  -5  10 29663.0 484.827  27
  -3  -5  10 31384.7 522.250  14
   3   5  -9 4174.28 439.079  31
   3   5  -9 5158.65 453.462   2
  -3  -5   8 402.073 131.606  34
   3   5  -8 374.189 134.919  31
   3   5  -8 358.999 126.215   2
  -3  -5   7 7886.15 531.404  34
  -3  -5   7 7834.02 547.895  10
   3   5  -7 6541.62 524.704  31
   3   5  -7 7873.13 559.675   2
  -3  -5   6 3216.39 326.896  34
  -3  -5   6 3206.54 333.317  10
   3   5  -6 3721.30 389.359  31
   3   5  -6 3670.72 386.323   2
  -3  -5   5 18864.6 793.480  34
  -3  -5   5 19123.3 790.381  10
   3   5  -5 20173.4 915.970  31
   3   5  -5 19054.4 959.177   2
  -3  -5   4 67.5671 66.1871  34
   3   5  -4 10.3828 92.4196   2
   3   5  -4 201.484 98.1523  31
  -3  -5   4 54.0701 50.9959  10
  -3  -5   3 5145.44 389.551  34
  -3  -5   3 4827.92 351.934  10
   3   5  -3 5405.80 516.832  31
   3   5  -3 4497.48 655.049   2
  -3  -5   2 1132.84 180.041  34
   3   5  -2 994.503 273.321  31
   3   5  -2 900.356 131.456   4
   3   5  -2 1322.21 567.556   2
  -3  -5   1 13148.5 629.369  34
   3   5  -1 12932.9 1091.31  31
  -3  -5   1 12951.7 578.021  30
   3   5  -1 12664.0 559.007   4
   3   5  -1 11732.4 1547.02   2
  -3  -5   0 35896.2 1080.93  34
   3   5   0 31946.8 1692.87  31
  -3  -5   0 35833.3 1033.63  30
   3   5   0 35883.4 1052.57   4
   3   5   0 30819.6 2016.70   2
  -3  -5  -1 11962.7 589.306  30
   3   5   1 11722.4 619.764   4
  -3  -5  -1 12211.5 616.243  34
   3   5   2 371.952 144.245   2
  -3  -5  -2 573.005 132.983  34
  -3  -5  -2 514.321 124.362  30
   3   5   2 419.042 130.709   4
   3   5   3 1243.42 225.007   2
  -3  -5  -3 1317.21 201.957  30
   3   5   3 1554.06 256.316   4
  -3  -5  -4 47.8627 21.1888  38
   3   5   4 63.2992 30.3424  16
   3   5   4 49.4844 23.1176  36
   3   5   4 154.695 36.6343  49
   3   5   4 147.570 25.8119  26
  -3  -5  -4 86.4505 25.7332  46
  -3  -5  -4 70.2442 23.1608  45
   3   5   4 36.6344 20.9441  22
  -3  -5  -4 48.9010 20.4897  39
  -3  -5  -5 7857.63 215.754  38
   3   5   5 8139.08 193.754  26
   3   5   5 7951.18 240.882  36
  -3  -5  -5 8201.35 225.612  46
  -3  -5  -5 7972.47 223.464  45
   3   5   5 7606.35 240.723  16
   3   5   5 7780.63 213.926  22
   3   5   5 7197.90 229.629  49
  -3  -5  -6 899.401 70.2979  38
   3   5   6 869.468 79.3757  36
   3   5   6 942.944 74.4228  22
   3   5   6 889.520 79.2173  16
   3   5   6 1027.40 67.9091  26
  -3  -5  -6 908.497 74.1045  46
  -3  -5  -6 931.609 73.1966  45
   3   5   6 809.145 76.6595  49
  -3  -5  -7 7078.06 206.407  38
   3   5   7 6996.00 229.631  36
   3   5   7 6313.82 215.649  16
   3   5   7 6140.23 216.159  49
   3   5   7 7366.33 186.822  26
  -3  -5  -7 6379.60 192.889  45
  -3  -5  -7 6947.13 208.402  46
  -3  -5  -8 248.279 37.7713  38
   3   5   8 248.356 45.8345  36
   3   5   8 236.154 43.1850  49
   3   5   8 315.666 46.9250  16
  -3  -5  -8 239.784 38.2293  46
   3   5   8 310.642 37.9973  26
  -3  -5  -9 2479.16 108.842  38
   3   5   9 2322.81 111.748  16
   3   5   9 2571.18 97.0155  26
  -3  -5  -9 2336.27 103.653  46
   3   5   9 2254.81 113.404  49
  -3  -5 -10 980.263 60.5829  38
  -3  -5 -10 829.822 52.1883  46
   3   5  10 913.644 60.5071  16
   3   5  10 900.719 61.7987  49
  -3  -5 -11 812.656 44.7519  38
  -3  -6  16 206.234 26.2888  19
  -3  -6  15 209.509 30.4133  19
  -3  -6  15 213.274 34.2694  14
  -3  -6  14 2355.84 105.451  19
  -3  -6  14 2333.92 111.834  14
  -3  -6  13 7326.97 206.443  19
  -3  -6  13 7753.87 226.367  14
  -3  -6  12 841.679 67.3461  19
  -3  -6  12 1001.64 71.3693  27
  -3  -6  12 942.277 79.5486  14
  -3  -6  11 5466.95 174.474  27
  -3  -6  11 5774.20 198.213  14
  -3  -6  10 1242.86 80.6205  19
  -3  -6  10 1456.99 88.0812  27
  -3  -6  10 1366.12 92.3592  14
  -3  -6   9 3649.68 137.009  19
  -3  -6   9 4093.77 147.958  27
  -3  -6   9 4008.04 156.437  14
  -3  -6   8 43674.8 1431.65  34
  -3  -6   8 43055.2 1454.58  10
   3   6  -8 37385.5 1643.98  31
   3   6  -8 34809.4 1608.82   2
  -3  -6   7 9284.83 628.877  34
  -3  -6   7 9116.20 626.885  10
   3   6  -7 8679.05 774.136  31
   3   6  -7 8360.09 799.021   2
  -3  -6   6 9256.75 601.817  34
  -3  -6   6 10104.2 630.433  10
   3   6  -6 9265.10 796.458  31
  -3  -6   5 10563.0 633.894  34
  -3  -6   5 11101.6 637.435  10
   3   6  -5 10836.8 881.482  31
   3   6  -5 9640.76 1013.64   2
  -3  -6   4 29582.7 1061.98  34
  -3  -6   4 26070.7 952.598  10
   3   6  -4 27295.7 1506.55  31
  -3  -6   3-131.304 74.0459  34
   3   6  -3 12.6460 336.112   2
   3   6  -3-13.3626 158.549  31
  -3  -6   2 8329.00 541.850  34
   3   6  -2 7076.77 909.048  31
   3   6  -2 6726.74 1132.43   2
  -3  -6   1 22756.6 910.982  34
   3   6  -1 20640.4 1441.81  31
   3   6  -1 20793.7 787.547   4
   3   6  -1 21623.4 1639.19   2
   3   6   0 2963.29 312.823   4
   3   6   0 3223.86 520.524   2
  -3  -6   0 2995.27 327.755  34
  -3  -6  -1 35239.0 1175.98  34
  -3  -6  -1 35496.4 1175.98  30
   3   6   1 35444.1 1205.72   4
   3   6   2 133.197 36.5370  16
  -3  -6  -2 149.079 30.5105  38
   3   6   2 123.302 26.9893  49
  -3  -6  -2 87.2390 58.9486  30
  -3  -6  -2 169.040 32.5337  45
  -3  -6  -2 201.879 32.7856  46
   3   6   2 57.7378 38.1319   4
  -3  -6  -2 192.810 33.0862  39
  -3  -6  -3 10850.6 258.042  38
   3   6   3 10279.1 261.510  36
   3   6   3 10398.9 282.590  16
  -3  -6  -3 10844.4 261.410  46
  -3  -6  -3 10841.7 265.836  45
   3   6   3 9930.17 203.103  26
   3   6   3 10016.1 255.514  44
   3   6   3 10147.9 281.869  49
  -3  -6  -3 10847.8 262.493  39
  -3  -6  -4 21349.3 401.115  38
   3   6   4 21051.8 418.092  36
   3   6   4 21769.4 352.692  26
  -3  -6  -4 20459.9 393.348  39
  -3  -6  -4 22230.9 417.902  45
  -3  -6  -4 21379.0 406.920  46
   3   6   4 20590.7 429.523  49
   3   6   4 21245.7 437.719  16
   3   6   4 21302.8 415.108  42
  -3  -6  -5 1485.89 93.2779  38
   3   6   5 1366.65 96.5761  36
   3   6   5 1328.13 98.2596  49
   3   6   5 1304.10 97.3295  16
  -3  -6  -5 1428.41 92.2365  45
   3   6   5 1664.29 82.2877  26
  -3  -6  -5 1479.14 95.8592  46
  -3  -6  -6 7959.71 221.727  38
  -3  -6  -6 7628.54 218.584  45
   3   6   6 8157.51 243.105  36
   3   6   6 7872.21 245.467  16
   3   6   6 8604.61 200.754  26
  -3  -6  -6 8063.01 229.377  46
   3   6   6 7297.24 236.799  49
   3   6   7 8302.22 242.071  16
   3   6   7 8881.59 248.563  36
   3   6   7 9473.78 205.330  26
   3   6   7 7677.21 238.457  49
  -3  -6  -7 7706.97 205.854  45
  -3  -6  -7 8755.49 228.007  38
  -3  -6  -7 8385.70 227.058  46
  -3  -6  -8 561.646 52.7077  38
   3   6   8 659.771 61.3693  16
   3   6   8 580.501 59.1081  49
  -3  -6  -8 541.620 51.1512  46
  -3  -6  -9 444.048 42.1747  38
   3   6   9 461.144 46.4676  16
   3   6   9 422.991 46.0491  49
  -3  -6  -9 428.324 39.1548  46
  -3  -6 -10 336.099 30.3489  38
  -3  -6 -10 340.492 33.2890  18
   3   6  10 333.792 31.0429  16
   3   6  10 313.201 30.9552  49
  -3  -7  16 388.066 34.5981  19
  -3  -7  15 524.714 44.9698  19
  -3  -7  15 491.941 47.8802  14
  -3  -7  14 1341.01 78.2407  19
  -3  -7  14 1375.45 85.0522  14
  -3  -7  13 1380.57 84.2781  19
  -3  -7  13 1435.72 93.6132  14
  -3  -7  12 1081.96 76.8778  19
  -3  -7  12 1308.16 80.8517  27
  -3  -7  12 1205.69 89.1922  14
  -3  -7  11 5591.82 177.266  27
  -3  -7  11 5249.67 186.942  14
  -3  -7  10 7124.09 206.702  19
  -3  -7  10 7849.29 217.036  27
  -3  -7  10 7460.11 225.487  14
  -3  -7   9 13962.5 299.597  27
  -3  -7   9 13051.2 305.594  14
  -3  -7   8 3185.81 137.250  14
  -3  -7   8 3083.01 129.055  17
  -3  -7   7 2643.27 349.717  34
  -3  -7   7 2954.86 373.680  10
  -3  -7   7 3051.67 127.499  17
  -3  -7   7 2908.97 126.743  14
  -3  -7   6 4121.39 433.660  34
  -3  -7   6 4239.95 430.853  10
   3   7  -6 4524.03 711.591  31
  -3  -7   5 17004.2 868.901  34
  -3  -7   5 17140.2 842.702  10
   3   7  -5 12797.0 1260.50  31
   3   7  -5 11396.9 1424.91   2
   3   7  -4 137.507 291.510   2
  -3  -7   4 19.8902 54.6709  34
   3   7  -4 187.933 239.455  31
  -3  -7   3 22821.9 994.489  34
   3   7  -3 17877.3 1425.37  31
   3   7  -3 19782.9 1724.18   2
  -3  -7   3 24020.4 980.597   1
   3   7  -2 2282.45 508.211   2
  -3  -7   2 2448.60 316.602  34
   3   7  -2 2252.85 475.925  31
   3   7  -1 15.8403 146.786   2
  -3  -7   1 19.0899 73.3588  34
  -3  -7   1 9.40892 15.5881  39
  -3  -7   1 31.0934 16.7762  45
  -3  -7   0 5245.33 171.198  38
  -3  -7   0 5213.23 462.989  34
   3   7   0 5677.83 219.873  49
  -3  -7   0 5448.38 173.364  17
   3   7   0 4830.50 425.602   4
  -3  -7   0 5048.67 169.293  46
  -3  -7   0 4851.46 172.043  45
  -3  -7   0 4975.03 174.637  39
   3   7   0 5565.66 183.408  16
  -3  -7  -1 7135.04 205.455  38
  -3  -7  -1 6957.05 211.314  45
  -3  -7  -1 6944.36 206.578  46
   3   7   1 6782.70 213.755  16
  -3  -7  -1 6850.00 210.606  39
   3   7   1 7308.91 239.486  49
  -3  -7  -2 3249.25 137.050  38
  -3  -7  -2 3318.84 141.872  39
  -3  -7  -2 3428.86 142.502  46
   3   7   2 3500.15 153.195  16
  -3  -7  -2 3356.95 144.942  45
   3   7   2 3395.15 157.981  49
   3   7   2 3306.89 145.043  44
  -3  -7  -3 11897.3 283.285  38
   3   7   3 11862.0 281.900  36
  -3  -7  -3 11971.5 274.218  11
   3   7   3 12043.5 306.795  16
  -3  -7  -3 12150.8 290.341  46
  -3  -7  -3 12113.3 295.352  45
   3   7   3 11169.0 277.270  44
   3   7   3 12164.7 297.865  42
   3   7   3 11742.7 308.225  49
  -3  -7  -4 7854.28 222.618  38
   3   7   4 7949.24 227.829  36
  -3  -7  -4 7933.66 229.160  46
   3   7   4 8008.09 243.820  16
  -3  -7  -4 8024.45 232.662  45
   3   7   4 7237.34 212.770  44
   3   7   4 7993.79 228.221  42
   3   7   4 7583.21 240.761  49
  -3  -7  -5 5657.38 184.214  38
   3   7   5 6081.91 195.076  36
   3   7   5 5992.42 206.648  16
   3   7   5 5581.10 202.547  49
  -3  -7  -5 6046.42 195.298  46
  -3  -7  -5 5772.97 187.333  45
   3   7   5 5478.48 176.365  42
   3   7   6-3.94294 21.7331  16
  -3  -7  -6 4.56972 16.6571  38
   3   7   6 20.8484 23.6171  49
  -3  -7  -6-10.0979 24.2626  46
  -3  -7  -7 2835.85 116.548  38
  -3  -7  -7 2767.72 115.409  46
   3   7   7 2978.37 127.881  16
   3   7   7 2731.36 126.938  49
  -3  -7  -8 845.675 57.3119  38
  -3  -7  -8 900.167 59.9420  18
   3   7   8 904.232 63.1316  16
   3   7   8 787.012 61.0055  49
  -3  -7  -8 790.845 53.7468  46
  -3  -7  -9 13.8940 9.73659  38
  -3  -7  -9 29.9757 13.0714  18
   3   7   9 3.90592 12.1502  49
   3   7   9 22.9408 14.0656  16
  -3  -8  16 2339.83 77.1745  19
  -3  -8  15 34.1178 12.6687  19
  -3  -8  15 44.9527 17.6937  14
  -3  -8  14 318.041 38.0797  19
  -3  -8  14 319.864 42.3796  14
  -3  -8  13 1.95243 15.4355  19
  -3  -8  13 0.60394 25.4272  14
  -3  -8  12 162.937 31.1033  19
  -3  -8  12 121.821 33.0424  14
  -3  -8  11 174.485 31.8290  19
  -3  -8  11 173.321 38.7110  14
  -3  -8  10 8272.34 223.545  19
  -3  -8  10 8323.17 239.004  14
  -3  -8   9 5233.02 173.357  19
  -3  -8   9 5364.50 176.386  17
  -3  -8   9 5235.40 184.497  14
  -3  -8   8 4179.28 157.073  17
  -3  -8   8 4090.52 156.868  14
  -3  -8   7 2900.43 125.563  11
  -3  -8   7 2809.97 127.741  17
  -3  -8   7 2881.81 127.566  14
  -3  -8   6 13183.0 294.354  11
  -3  -8   6 13061.2 300.348  17
  -3  -8   5 252.966 40.0318  11
  -3  -8   5 222.376 40.4065  17
  -3  -8   4 10124.1 255.456  11
  -3  -8   4 10185.9 259.953  17
  -3  -8   3 7117.93 207.624  46
  -3  -8   3 7517.52 218.456  11
  -3  -8   3 7476.11 218.700  17
  -3  -8   3 7267.54 215.723  45
   3   8  -3 7568.02 266.171  49
  -3  -8   3 7417.75 214.347  38
  -3  -8   2 1515.91 95.4448  11
  -3  -8   2 1616.99 97.5652  17
   3   8  -2 1720.30 118.604  49
  -3  -8   2 1460.31 90.5699  46
  -3  -8   2 1518.21 96.1001  45
  -3  -8   2 1566.55 94.5499  38
  -3  -8   1 34671.8 565.375  38
  -3  -8   1 34342.7 564.917  46
  -3  -8   1 35350.5 568.161  17
  -3  -8   1 36157.8 583.671  11
  -3  -8   1 33838.2 573.372  45
   3   8  -1 36663.7 620.617  49
  -3  -8   0 19385.9 386.006  38
  -3  -8   0 19748.6 393.791  11
  -3  -8   0 19222.8 374.854  17
   3   8   0 18235.5 375.328  16
  -3  -8   0 18843.7 381.204  46
   3   8   0 19422.5 411.162  49
  -3  -8   0 18935.1 393.099  45
   3   8   0 19983.1 403.189  42
  -3  -8  -1 4911.93 174.989  38
   3   8   1 5011.98 189.454  49
  -3  -8  -1 5007.17 177.368  11
  -3  -8  -1 4718.92 173.134  46
   3   8   1 4914.56 177.233  16
  -3  -8  -1 4720.37 177.524  45
   3   8   1 4948.85 183.765  44
   3   8   1 5227.56 189.114  42
  -3  -8  -2 4366.92 164.300  38
   3   8   2 4458.36 177.656  49
  -3  -8  -2 4460.04 163.096  11
  -3  -8  -2 4781.85 161.906  18
   3   8   2 4395.72 169.568  16
  -3  -8  -2 4435.46 167.735  46
  -3  -8  -2 4444.69 171.927  45
   3   8   2 4337.05 166.714  44
   3   8   2 4495.10 171.957  42
  -3  -8  -3 8632.46 235.576  38
   3   8   3 8885.93 243.288  42
  -3  -8  -3 8681.97 238.924  46
  -3  -8  -3 8895.51 228.912  18
   3   8   3 8644.00 247.985  16
  -3  -8  -3 8609.20 242.990  45
   3   8   3 8080.03 228.921  44
   3   8   3 8547.62 251.781  49
  -3  -8  -4 61.5666 23.1324  38
  -3  -8  -4 21.7547 20.2170  18
   3   8   4 9.98797 24.6404  16
  -3  -8  -4 40.0352 26.2500  45
   3   8   4 7.02663 17.1125  44
   3   8   4 6.47700 16.9071  42
  -3  -8  -4 52.6968 25.9369  46
   3   8   4-7.94101 27.3489  49
  -3  -8  -5 1081.24 74.9495  38
  -3  -8  -5 1068.37 71.1878  18
   3   8   5 1082.49 79.2117  16
   3   8   5 1074.27 81.8829  49
  -3  -8  -5 1106.42 77.5396  46
  -3  -8  -5 1066.34 72.7569  45
   3   8   5 953.861 66.8127  42
  -3  -8  -6 273.603 36.9146  38
  -3  -8  -6 264.596 35.8929  18
   3   8   6 276.983 39.1439  16
  -3  -8  -6 305.250 40.6630  46
  -3  -8  -6 250.630 31.8353  45
   3   8   6 285.020 42.7953  49
  -3  -8  -7-7.65252 14.0142  38
   3   8   7 12.3011 15.4426  16
  -3  -8  -7 11.8850 13.8732  18
   3   8   7-3.90488 15.7580  49
  -3  -8  -7 26.0537 14.7174  46
  -3  -8  -8 507.896 35.2669  18
   3   8   8 590.120 39.9925  16
   3   8   8 568.920 40.2490  49
  -3  -9  15 2.13547 11.8068  19
  -3  -9  15-3.59612 19.4218  14
  -3  -9  14 45.1579 15.5932  19
  -3  -9  14 65.3594 23.8415  14
  -3  -9  13 65.4788 24.7863  14
  -3  -9  13 90.4225 21.1601  19
  -3  -9  12 236.134 34.8570  19
  -3  -9  12 214.520 37.7730  14
  -3  -9  11 358.632 43.8589  19
  -3  -9  11 450.664 51.4429  14
  -3  -9  10 5716.16 178.540  19
  -3  -9  10 5911.42 181.845  17
  -3  -9  10 5792.65 188.070  14
  -3  -9   9 20540.8 388.197  19
  -3  -9   9 21732.9 405.821  17
  -3  -9   9 21618.7 405.563  14
  -3  -9   8 1793.08 103.704  17
  -3  -9   8 1948.76 103.844  14
  -3  -9   7 6889.86 205.264  11
  -3  -9   7 6684.06 209.003  17
  -3  -9   6 1417.32 92.4425  11
  -3  -9   6 1420.49 95.5857  17
  -3  -9   6 1473.83 94.2835  45
  -3  -9   5 16053.4 347.051  11
  -3  -9   5 16136.5 347.734  17
  -3  -9   5 15617.1 341.480  45
   3   9  -5 15379.3 318.454  42
  -3  -9   4 2492.84 125.299  11
  -3  -9   4 2639.27 129.081  17
  -3  -9   4 2600.85 127.446  45
  -3  -9   4 2527.39 124.191  38
   3   9  -4 2584.23 121.776  42
  -3  -9   3 5983.73 201.828  11
  -3  -9   3 6018.66 198.672  17
  -3  -9   3 5949.13 193.286  46
  -3  -9   3 5674.13 195.394  45
   3   9  -3 6202.45 198.054  42
  -3  -9   3 5807.11 194.674  38
  -3  -9   2 22329.8 429.239  11
  -3  -9   2 21919.8 418.325  17
   3   9  -2 20834.6 413.728  49
  -3  -9   2 20951.3 411.713  46
  -3  -9   2 20850.7 419.230  45
   3   9  -2 21510.4 417.131  42
  -3  -9   2 21135.3 415.901  38
  -3  -9   1 395.535 49.1687  46
  -3  -9   1 403.045 53.0230  11
  -3  -9   1 401.443 50.3143  17
  -3  -9   1 426.226 54.2681  45
   3   9  -1 449.210 62.4926  44
   3   9  -1 449.110 54.7826  49
   3   9  -1 460.422 56.7456  42
  -3  -9   1 632.893 63.5900  38
  -3  -9   0 2351.81 120.640  11
  -3  -9   0 2313.96 110.749  17
   3   9   0 2230.37 117.750  49
   3   9   0 2109.84 107.372  16
  -3  -9   0 2295.78 121.181  45
   3   9   0 2329.18 125.028  44
   3   9   0 2280.64 121.598  42
  -3  -9   0 2278.27 117.713  46
  -3  -9   0 2347.44 119.528  38
  -3  -9  -1 149.817 33.7105  38
  -3  -9  -1 154.836 33.4575  11
  -3  -9  -1 101.680 26.4899  46
   3   9   1 97.8858 26.5345  16
   3   9   1 125.239 31.8613  44
   3   9   1 148.222 35.0514  42
   3   9   1 136.642 35.6103  49
  -3  -9  -1 86.4841 26.6344  45
  -3  -9  -2 3588.75 144.652  38
  -3  -9  -2 3605.18 137.274  11
  -3  -9  -2 3629.11 134.387  18
   3   9   2 3433.97 140.103  16
  -3  -9  -2 3628.33 146.236  46
  -3  -9  -2 3589.00 147.770  45
   3   9   2 3449.36 143.001  44
   3   9   2 3489.60 148.137  49
   3   9   2 3630.15 145.935  42
  -3  -9  -3 869.424 68.1850  38
  -3  -9  -3 915.625 64.9582  18
   3   9   3 776.856 64.7093  16
  -3  -9  -3 824.265 68.0493  46
  -3  -9  -3 828.630 68.1557  45
   3   9   3 831.005 66.8104  44
   3   9   3 823.092 65.2039  42
   3   9   3 832.663 71.2949  49
  -3  -9  -4 2350.97 105.718  38
  -3  -9  -4 2271.25 97.1347  18
   3   9   4 2366.90 106.483  16
   3   9   4 2375.12 113.585  49
   3   9   4 2337.40 101.278  42
  -3  -9  -4 2312.33 106.587  46
  -3  -9  -4 2290.88 103.667  45
   3   9   4 2167.57 99.6868  44
   3   9   5 1068.02 71.2874  49
  -3  -9  -5 957.057 58.4891  18
   3   9   5 959.455 62.0668  16
  -3  -9  -5 1016.85 65.5190  46
  -3  -9  -5 912.199 56.1672  45
  -3  -9  -5 979.593 63.2524  38
  -3  -9  -6 109.314 21.9954  38
   3   9   6 105.322 23.4841  49
  -3  -9  -6 102.548 20.4290  18
   3   9   6 61.4222 17.4484  16
  -3  -9  -6 106.676 19.6625  46
  -3 -10  14 1041.55 52.3430  19
  -3 -10  14 1191.12 63.6962  14
  -3 -10  13 433.338 38.0375  19
  -3 -10  13 456.033 45.2200  14
  -3 -10  12 240.849 30.3336  19
  -3 -10  12 257.119 37.4628  14
  -3 -10  11 1253.13 72.5340  19
  -3 -10  11 1360.95 81.5210  14
  -3 -10  10 118.424 25.2752  19
  -3 -10  10 200.672 35.9568  17
  -3 -10  10 199.991 37.7225  14
  -3 -10   9 11422.9 268.841  17
  -3 -10   9 11179.6 255.421  14
  -3 -10   8 244.263 39.6822  11
  -3 -10   8 251.779 42.4889  17
  -3 -10   7 1922.87 105.094  11
  -3 -10   7 1770.07 105.385  17
  -3 -10   7 1952.94 104.868  13
  -3 -10   6 12587.5 296.374  11
  -3 -10   6 12723.1 302.373  17
  -3 -10   5 14435.9 324.005  11
  -3 -10   5 14525.3 327.404  17
  -3 -10   5 14132.2 321.163  45
   3  10  -5 13595.7 289.309  42
  -3 -10   4 1395.40 93.1670  11
  -3 -10   4 1352.58 89.3667  38
  -3 -10   4 1432.35 94.2110  17
  -3 -10   4 1321.07 86.7691  46
  -3 -10   4 1432.88 95.2051  45
   3  10  -4 1602.07 113.345  44
   3  10  -4 1366.81 85.0359  42
  -3 -10   3 4357.30 168.849  11
  -3 -10   3 4335.75 163.375  17
  -3 -10   3 4161.31 158.255  46
  -3 -10   3 4200.30 165.044  45
   3  10  -3 4746.61 180.587  44
   3  10  -3 4225.97 156.344  42
  -3 -10   3 4213.37 162.128  38
  -3 -10   2 3550.91 150.189  11
  -3 -10   2 3685.42 145.403  17
  -3 -10   2 3404.29 142.476  46
  -3 -10   2 3561.06 150.450  45
   3  10  -2 3530.71 151.807  44
   3  10  -2 3507.18 144.760  42
  -3 -10   2 3287.14 143.196  38
  -3 -10   1 1647.39 98.7246  11
  -3 -10   1 1490.29 87.1032  17
   3  10  -1 1438.48 85.5056  49
  -3 -10   1 1458.30 94.8837  45
   3  10  -1 1621.64 99.1043  44
   3  10  -1 1458.74 90.9422  42
  -3 -10   1 1503.45 92.6479  46
  -3 -10   1 1440.21 92.1411  38
  -3 -10   0 14.5294 15.7887  38
  -3 -10   0 18.9954 18.0656  11
  -3 -10   0 19.7622 16.5816  46
  -3 -10   0 38.6830 22.0466  45
   3  10   0 18.7638 18.0494  44
   3  10   0 32.8515 24.0699  42
   3  10   0 23.6288 15.8939  41
   3  10   0 92.2272 24.3488  49
  -3 -10  -1 404.984 44.7852  11
   3  10   1 368.637 40.0344  16
  -3 -10  -1 368.324 45.5616  45
  -3 -10  -1 399.311 46.8526  46
   3  10   1 368.366 43.6769  42
   3  10   1 351.138 43.3623  44
   3  10   1 332.650 42.4709  49
  -3 -10  -1 352.332 43.4748  38
  -3 -10  -2 1771.60 82.3500  11
   3  10   2 1767.54 84.6574  16
  -3 -10  -2 1871.02 95.4566  46
  -3 -10  -2 1829.05 93.5579  45
   3  10   2 1888.69 96.2726  44
   3  10   2 1965.72 94.1779  42
   3  10   2 1768.42 92.2431  49
  -3 -10  -2 1692.73 90.1079  38
   3  10   3 731.941 56.3830  49
  -3 -10  -3 746.592 55.7047  46
  -3 -10  -3 680.435 47.0241  18
   3  10   3 724.680 51.0186  16
  -3 -10  -3 684.830 52.9054  45
   3  10   3 740.849 54.7931  44
   3  10   3 770.967 54.6354  42
  -3 -10  -3 758.915 55.6655  38
  -3 -10  -4 8.53800 13.2006  38
   3  10   4-8.43468 12.6588  16
  -3 -10  -4 4.22085 10.5090  18
  -3 -10  -4-8.21256 12.5260  46
   3  10   4-19.5756 13.0529  44
   3  10   4-1.28193 13.0033  49
   3  10   4 1.04998 10.1898  42
  -3 -10  -5 477.778 35.4830  38
  -3 -11  12 1448.52 69.4597  14
  -3 -11  11 83.5448 19.0104  17
  -3 -11  11 138.778 26.0725  14
  -3 -11  10 1032.09 67.7184  17
  -3 -11  10 1138.70 64.1250  14
  -3 -11   9 4212.54 145.110  17
  -3 -11   8 1431.83 80.3032  13
  -3 -11   8 1351.30 79.7857  11
  -3 -11   8 1314.56 82.5291  17
   3  11  -8 1429.43 85.1096  44
  -3 -11   7 4877.71 161.950  11
  -3 -11   7 4887.03 166.174  17
   3  11  -7 5263.56 171.568  44
  -3 -11   7 4888.76 160.027  13
  -3 -11   6 2247.30 109.982  11
  -3 -11   6 2150.78 111.668  17
   3  11  -6 2346.74 114.653  44
  -3 -11   6 2152.97 107.182  13
  -3 -11   5 772.201 67.4353  11
  -3 -11   5 794.911 66.0354  17
   3  11  -5 859.274 70.8789  44
   3  11  -5 787.432 57.5963  42
  -3 -11   5 787.192 63.9431  38
  -3 -11   4 3677.44 144.125  11
  -3 -11   4 3596.55 138.304  17
  -3 -11   4 3426.74 133.208  46
   3  11  -4 3484.69 128.417  42
   3  11  -4 3591.95 140.104  44
  -3 -11   4 3519.42 137.563  38
  -3 -11   3-9.47327 19.8552  38
  -3 -11   3 20.4408 17.9547  46
  -3 -11   3 48.3826 25.9747  11
  -3 -11   3 30.7283 19.7945  17
   3  11  -3 31.2328 22.0332  44
   3  11  -3 21.4352 16.3821  42
  -3 -11   2 698.100 60.0115  11
  -3 -11   2 751.898 59.2890  17
  -3 -11   2 697.922 58.5909  46
  -3 -11   2 668.727 59.1082  45
   3  11  -2 690.467 59.2841  44
   3  11  -2 733.799 58.9199  42
  -3 -11   2 713.667 59.9636  38
  -3 -11   1 1364.55 79.7713  11
  -3 -11   1 1356.73 80.5082  46
  -3 -11   1 1293.06 80.7024  45
   3  11  -1 1373.52 79.6609  44
   3  11  -1 1417.42 80.6948  42
   3  11  -1 1309.59 73.2490  41
  -3 -11   1 1305.86 78.1401  38
  -3 -11   0 118.608 23.8745  38
  -3 -11   0 159.585 26.7982  11
  -3 -11   0 142.948 26.3217  46
  -3 -11   0 82.3645 20.3795  45
   3  11   0 123.840 24.8446  42
   3  11   0 148.542 27.1903  44
   3  11   0 150.248 24.0575  41
   3  11   0 132.101 22.7045  49
   3  11   1 858.881 58.1992  44
  -3 -11  -1 829.356 51.3465  11
  -3 -11  -1 791.291 55.8921  46
   3  11   1 792.447 50.9452  49
   3  11   1 781.759 53.7560  42
  -3 -11  -1 785.174 54.8132  38
  -3 -11  -2 1059.55 52.5547  13
   3  11   2 1091.18 55.0395  49
   3  11   2 1061.64 58.8140  44
   3  11   2 1169.08 59.5180  42
  -3 -11  -2 1064.74 59.4534  46
  -3 -11  -2 1088.23 60.1387  38
  -3 -11  -3 554.006 38.1528  46
  -3 -11  -3 578.920 39.1370  38
  -3 -12  11 471.209 35.7114  17
  -3 -12  10 817.859 51.8236  17
   3  12 -10 735.864 39.8775  41
  -3 -12   9 21.8544 13.9933  17
  -3 -12   8 545.001 45.1507  11
  -3 -12   8 543.009 47.1526  17
   3  12  -8 543.288 41.9951  44
  -3 -12   8 609.101 46.6460  13
  -3 -12   7 549.236 47.6353  11
  -3 -12   7 563.852 49.3095  17
   3  12  -7 542.458 44.7843  44
  -3 -12   7 581.057 48.6441  13
  -3 -12   6 919.973 63.3899  11
  -3 -12   6 885.753 62.3250  17
   3  12  -6 919.135 59.4356  44
  -3 -12   6 898.365 60.7727  13
  -3 -12   5 3638.89 126.681  11
  -3 -12   5 3704.01 126.218  13
  -3 -12   5 3655.63 125.284  17
   3  12  -5 3437.62 119.229  44
   3  12  -5 3480.48 107.859  42
  -3 -12   4 205.137 29.7564  38
  -3 -12   4 193.810 33.3973  11
  -3 -12   4 164.602 28.3310  13
  -3 -12   4 199.842 30.0488  17
  -3 -12   4 183.628 26.6910  46
   3  12  -4 119.441 23.8827  44
   3  12  -4 225.664 29.5419  42
   3  12  -4 212.470 31.8881  41
  -3 -12   3 12.1308 13.0152  38
  -3 -12   3 10.7830 13.7534  11
  -3 -12   3 15.7378 14.7413  17
  -3 -12   3 32.7543 16.4399  46
   3  12  -3-23.4965 23.5986  44
   3  12  -3-0.38213 12.4511  42
   3  12  -3 19.4803 15.4677  41
  -3 -12   3-5.60019 19.9986  13
  -3 -12   2 73.2951 18.9869  38
  -3 -12   2 98.8985 22.8702  11
  -3 -12   2 101.945 20.6136  46
   3  12  -2 121.577 24.1368  44
   3  12  -2 98.1376 21.3074  42
   3  12  -2 98.9194 20.2477  41
  -3 -12   2 101.294 21.8988  13
  -3 -12   1 2113.79 80.8436  11
  -3 -12   1 1936.24 78.6880  46
   3  12  -1 1993.35 82.2240  44
   3  12  -1 2144.10 82.9593  42
   3  12  -1 1924.67 71.2876  41
  -3 -12   1 2102.42 81.5460  13
  -3 -12   1 2016.95 81.2404  38
  -3 -12   0 62.4071 14.6670  38
  -3 -12   0 58.1393 12.7563  46
   3  12   0 72.4975 15.9665  44
   3  12   0 77.2387 16.9494  42
  -3 -12   0 64.0835 14.2791  13
  -3 -13   9 522.471 36.2181  17
  -3 -13   8 29.9378 12.9628  17
   3  13  -8 19.7893 11.1255  41
   3  13  -7 886.503 47.4386  41
  -3 -13   7 877.376 47.5843  11
  -3 -13   7 867.983 49.8527  17
  -3 -13   7 917.614 47.9594  13
  -3 -13   6 2968.27 93.0547  11
  -3 -13   6 2981.09 91.8275  17
   3  13  -6 2857.08 85.1510  44
   3  13  -6 3018.32 91.4136  41
  -3 -13   6 2987.69 91.2176  13
  -3 -13   5 2741.20 88.5228  11
  -3 -13   5 2632.08 82.7741  17
   3  13  -5 2718.00 84.5070  44
   3  13  -5 2809.83 87.3304  41
  -3 -13   5 2683.95 86.2867  13
  -3 -13   4 816.787 45.8117  11
   3  13  -4 808.837 44.7535  44
   3  13  -4 814.295 44.0506  41
  -3 -13   4 816.083 45.2529  13
   4 -13   2 994.507 51.6705  18
   4 -13   3 1465.58 66.5161  18
  -4  13  -3 1527.36 60.7418  20
  -4  13  -3 1552.24 61.6187  41
  -4  13  -4 268.630 26.9093  20
   4 -13   4 315.888 32.0874  18
   4 -13   5 1150.36 61.7475  18
  -4  13  -5 1310.65 59.2682  20
  -4  13  -5 1185.55 50.7864  43
  -4  13  -6 7.45111 9.88565  20
   4 -13   6-0.14565 10.1386  18
  -4  13  -6 22.3366 11.1156  43
   4 -13   7 252.549 28.5522  18
  -4  13  -7 254.552 24.4337  43
  -4  13  -7 238.963 24.0255  20
   4 -13   8 1.20994 9.44365  12
  -4  13  -8 21.8698 11.2847  43
   4 -12  -1 2507.56 86.2475  18
  -4  12   1 2693.90 89.0445  42
  -4  12   1 2614.34 89.6588  41
   4 -12  -1 2439.92 88.9152  37
  -4  12   0 0.59096 12.4147  41
   4 -12   0 39.7667 15.9467  18
   4 -12   0 23.2468 10.8218  47
   4 -12   0 31.2149 15.5811  37
  -4  12   0 22.3247 11.0400  42
  -4  12  -1 292.537 33.4991  41
   4 -12   1 287.190 35.7353  18
   4 -12   1 245.739 33.7429  37
  -4  12  -1 287.800 29.7389  20
  -4  12  -1 305.667 33.1597  42
   4 -12   1 303.758 31.7942  47
   4 -12   2 53.5437 18.4036  37
  -4  12  -2 44.8069 15.2062  20
   4 -12   2 51.6643 18.9482  18
   4 -12   2 30.1040 13.3521  47
  -4  12  -2 56.1463 18.6161  41
  -4  12  -2 40.0738 12.9030  42
   4 -12   3 125.645 25.5186  37
  -4  12  -3 120.419 22.8265  20
  -4  12  -3 114.514 21.7706  42
   4 -12   3 107.163 25.3216  18
   4 -12   3 91.9973 19.8426  47
  -4  12  -3 105.857 19.2589  43
  -4  12  -3 153.735 26.8738  41
   4 -12   3 110.381 21.2334  13
   4 -12   4 1550.50 81.7305  37
  -4  12  -4 1761.45 82.7006  20
  -4  12  -4 1623.77 73.4642  43
   4 -12   4 1759.45 92.7020  18
   4 -12   4 1542.95 76.3291  47
  -4  12  -4 1664.80 79.4185  41
  -4  12  -4 1650.26 74.7386  42
   4 -12   4 1529.77 77.5526  13
  -4  12  -5 2016.69 89.2668  20
   4 -12   5 1877.79 95.9918  18
  -4  12  -5 1885.01 81.6405  43
  -4  12  -5 1766.90 77.6190  41
   4 -12   5 1786.83 86.2266  13
   4 -12   5 1784.72 87.4249  37
   4 -12   6 3543.24 122.720  37
   4 -12   6 3494.93 113.646  19
   4 -12   6 3792.12 140.317  18
  -4  12  -6 3916.20 120.487  43
   4 -12   6 3893.82 130.798  13
  -4  12  -6 4074.64 128.080  20
   4 -12   7 1034.63 56.9550  19
   4 -12   7 1277.34 76.6370  18
  -4  12  -7 1220.46 65.7759  20
   4 -12   7 1136.05 65.4708  37
  -4  12  -7 1252.25 66.3355  43
   4 -12   7 1172.86 70.3509  13
  -4  12  -8 374.130 34.9348  20
   4 -12   8 397.097 43.2106  18
  -4  12  -8 410.646 37.1715  43
  -4  12  -9 3417.93 96.4168  20
  -4  12  -9 3687.22 105.938  43
   4 -12   9 3636.08 116.160  12
  -4  12  -9 3454.10 86.1018  48
   4 -12  10 1060.28 55.7786  26
  -4  12 -10 1084.12 51.7843  43
   4 -12  10 1088.38 57.5756  12
  -4  12 -10 1017.67 49.0611  39
  -4  12 -10 1150.60 45.5490  48
   4 -12  11 719.321 42.0093  26
   4 -11  -4 1673.11 69.7415  37
  -4  11   4 1779.52 64.3782  25
   4 -11  -3 17.3405 13.1173  47
   4 -11  -3 36.9435 14.4231  18
   4 -11  -3 21.9198 15.1100  37
  -4  11   3 9.47296 10.1763  25
  -4  11   3 25.1150 12.0061  44
  -4  11   3 27.1251 14.2331  41
  -4  11   3 9.78707 11.2488  42
   4 -11  -2 673.055 51.0383  18
   4 -11  -2 685.952 53.3570  37
  -4  11   2 684.233 51.3963  42
  -4  11   2 659.186 50.7657  41
  -4  11   2 693.510 49.2764  44
   4 -11  -2 689.855 52.2356  47
  -4  11   2 730.747 48.9571  25
   4 -11  -1 20.5950 18.2358  37
   4 -11  -1 54.6297 19.4878  18
  -4  11   1 56.7935 20.6625  41
   4 -11  -1 32.2273 18.8212  47
  -4  11   1 60.5806 17.9531  44
  -4  11   1 43.8993 17.7126  42
  -4  11   1 32.4029 15.8700  25
   4 -11  -1 43.6174 15.5326  21
  -4  11   0 4003.93 127.227  20
  -4  11   0 4410.49 146.275  42
   4 -11   0 3983.09 145.465  37
   4 -11   0 4231.23 148.767  18
  -4  11   0 3994.90 123.235  25
  -4  11   0 4393.49 150.614  41
   4 -11   0 3976.63 139.519  47
   4 -11   1-2.67330 17.9482  37
   4 -11   1 18.6474 18.2396  18
   4 -11   1 10.9902 15.9440  47
  -4  11  -1 9.02356 12.9405  25
  -4  11  -1 17.3014 17.9710  41
  -4  11  -1 17.3273 19.6017  42
  -4  11  -1 7.25615 14.1054  20
  -4  11  -2 4929.89 157.526  20
   4 -11   2 4602.46 166.578  18
   4 -11   2 4479.15 161.940  37
   4 -11   2 4455.91 156.548  47
   4 -11   2 4662.17 150.428  13
  -4  11  -2 4608.50 137.400  43
  -4  11  -2 4706.53 155.316  42
  -4  11  -2 4773.01 161.110  41
   4 -11   3 6651.17 202.085  37
  -4  11  -3 7174.46 195.762  20
   4 -11   3 6720.23 208.384  18
  -4  11  -3 6707.65 175.958  43
  -4  11  -3 6694.23 186.322  42
   4 -11   3 6376.50 192.795  47
  -4  11  -3 6951.09 196.728  41
   4 -11   3 6501.78 188.074  13
  -4  11  -4 3622.75 133.978  41
   4 -11   4 3541.93 144.003  37
  -4  11  -4 3779.37 139.863  20
   4 -11   4 3733.71 152.604  18
  -4  11  -4 3615.53 127.665  43
  -4  11  -4 3484.63 127.549  42
   4 -11   4 3282.20 134.583  47
   4 -11   4 3364.78 135.248  13
   4 -11   5 6069.84 186.675  13
   4 -11   5 6031.62 199.814  18
   4 -11   5 5817.10 183.357  47
  -4  11  -5 6065.89 171.496  43
  -4  11  -5 6215.35 180.759  20
  -4  11  -5 5702.16 166.339  41
   4 -11   5 5931.56 189.579  37
   4 -11   6 6540.15 198.911  37
  -4  11  -6 6839.64 188.155  20
   4 -11   6 6700.16 213.478  18
  -4  11  -6 6993.44 183.473  43
   4 -11   6 6313.53 193.761  13
   4 -11   6 6287.56 190.710  47
   4 -11   7 3203.99 131.550  37
  -4  11  -7 3270.02 121.876  20
   4 -11   7 2916.42 112.658  19
   4 -11   7 3348.18 141.951  18
  -4  11  -7 3397.61 121.864  43
   4 -11   7 3334.05 134.806  13
   4 -11   7 3119.46 127.311  47
   4 -11   8 1167.11 81.9325  18
  -4  11  -8 1189.80 68.9506  20
  -4  11  -8 1183.43 70.1018  43
   4 -11   8 1211.77 79.6324  13
   4 -11   8 1109.87 74.3592  37
   4 -11   8 1201.79 76.5272  47
   4 -11   9 10.5373 13.3769  37
  -4  11  -9 9.59112 10.7020  20
   4 -11   9 16.8438 18.3725  12
   4 -11   9 35.1687 24.4239  18
  -4  11  -9 9.88293 15.0095  43
   4 -11  10 1769.46 86.6332  12
  -4  11 -10 1701.07 74.7807  39
  -4  11 -10 1797.94 76.5060  43
   4 -11  11 84.7509 18.5805  12
   4 -11  11 87.6958 21.0955  26
   4 -11  11 77.0492 17.8396  23
  -4  11 -11 90.5034 16.7683  48
  -4  11 -11 93.5019 16.9438  43
  -4  11 -11 79.2699 15.6824  39
   4 -11  12-3.32787 10.6067  12
   4 -11  12-5.74720 11.8156  26
  -4  11 -12 19.5926 9.77500  48
   4 -11  12 14.9950 9.41770  23
   4 -10  -6 537.333 37.4268  37
   4 -10  -6 603.113 39.5740  47
  -4  10   6 614.490 38.2145  25
  -4  10   6 625.146 41.3249  44
  -4  10   5 3024.84 100.742  27
  -4  10   5 3024.35 93.1326  42
   4 -10  -5 3222.59 108.176  47
  -4  10   5 3032.62 106.921  44
   4 -10  -5 3050.03 106.177  37
  -4  10   5 2886.32 93.4216  41
   4 -10  -4 1153.27 69.4925  47
  -4  10   4 1098.58 64.4831  42
   4 -10  -4 1066.30 62.2969  18
  -4  10   4 1146.30 69.7811  44
   4 -10  -4 1111.40 70.3374  37
  -4  10   4 961.216 61.8463  41
  -4  10   4 1105.17 64.9355  25
  -4  10   3 2.53851 16.5063  41
   4 -10  -3 28.8563 18.3783  37
   4 -10  -3 20.9869 15.5123  18
   4 -10  -3 44.1453 21.8445  47
  -4  10   3 28.0553 16.1820  25
  -4  10   3 24.5622 18.1247  44
  -4  10   3 8.68411 17.0254  42
   4 -10  -2 1092.41 75.6770  18
   4 -10  -2 1204.66 79.9780  47
  -4  10   2 1152.92 71.9458  25
  -4  10   2 1107.07 75.8760  42
  -4  10   2 1091.48 76.8120  41
  -4  10   2 1098.96 74.2559  44
   4 -10  -2 1142.11 81.5163  37
  -4  10   1 3339.24 121.646  20
   4 -10  -1 3161.74 136.569  18
   4 -10  -1 3426.99 140.184  47
  -4  10   1 3414.43 142.193  41
  -4  10   1 3400.91 133.423  44
  -4  10   1 3504.31 129.807  25
  -4  10   1 3523.41 140.906  42
   4 -10  -1 3407.44 144.087  37
   4 -10   0 4361.34 166.553  37
  -4  10   0 4574.86 152.980  20
   4 -10   0 4343.40 167.113  18
   4 -10   0 4265.19 162.028  47
  -4  10   0 4399.56 147.207  25
  -4  10   0 4645.10 169.973  41
  -4  10   0 4433.35 161.542  42
  -4  10  -1 605.165 57.0573  20
   4 -10   1 555.731 60.2794  37
   4 -10   1 577.162 62.0892  18
  -4  10  -1 527.039 49.2661  25
   4 -10   1 557.715 59.6846  47
  -4  10  -1 575.430 50.1797  43
  -4  10  -1 601.663 58.9138  42
  -4  10  -1 611.213 60.9402  41
  -4  10  -2 891.406 68.9810  20
   4 -10   2 801.033 73.2092  18
  -4  10  -2 837.890 62.0635  43
   4 -10   2 809.810 70.9672  47
   4 -10   2 804.154 72.8061  37
  -4  10  -2 792.785 67.5724  42
   4 -10   2 891.426 72.0799  13
  -4  10  -2 883.002 72.8607  41
  -4  10  -3 6249.68 192.814  20
  -4  10  -3 6029.89 186.618  42
   4 -10   3 5963.24 207.057  18
  -4  10  -3 5984.46 177.220  43
  -4  10  -3 6149.44 193.721  41
   4 -10   3 6151.93 197.205  13
   4 -10   3 5982.40 202.719  37
   4 -10   3 5801.54 196.459  47
   4 -10   4 10403.8 282.907  18
  -4  10  -4 10229.2 256.930  20
   4 -10   4 10102.1 269.924  47
  -4  10  -4 10658.8 247.487  43
  -4  10  -4 10168.4 245.525  42
   4 -10   4 10000.7 272.915  37
  -4  10  -4 10392.1 252.661  41
   4 -10   4 10404.6 267.827  13
   4 -10   5 21816.6 437.552  37
   4 -10   5 22524.3 437.471  47
   4 -10   5 22429.7 450.073  18
  -4  10  -5 23205.5 401.855  43
  -4  10  -5 23180.0 414.516  20
   4 -10   5 22326.2 432.086  13
   4 -10   6 56.7266 33.1249  37
  -4  10  -6 53.1693 23.1540  20
   4 -10   6 39.5737 29.6979  18
   4 -10   6 39.1874 26.2433  47
  -4  10  -6 32.5765 20.5736  43
   4 -10   6 20.4784 24.2840  13
   4 -10   7 165.575 38.3950  37
   4 -10   7 124.456 35.7128  18
   4 -10   7 97.7793 28.9419  47
  -4  10  -7 152.259 29.6394  20
  -4  10  -7 122.939 26.7714  43
   4 -10   7 137.821 32.7223  13
  -4  10  -8 335.649 40.2056  20
   4 -10   8 324.042 48.5871  37
   4 -10   8 427.722 56.4748  18
   4 -10   8 415.687 50.7342  47
  -4  10  -8 394.601 43.3913  43
   4 -10   8 418.036 52.2148  13
   4 -10   9 2055.40 109.546  37
   4 -10   9 2195.20 111.125  12
   4 -10   9 2161.52 121.968  18
   4 -10   9 2159.41 113.219  47
  -4  10  -9 2123.82 95.4928  43
   4 -10  10 263.588 38.8642  37
   4 -10  10 286.318 40.3060  47
   4 -10  10 308.428 40.2690  12
  -4  10 -10 233.472 30.6765  43
   4 -10  11 870.542 62.6168  26
  -4  10 -11 887.522 51.5206  43
   4 -10  11 857.061 62.0997  12
  -4  10 -11 793.357 49.7510  39
   4 -10  11 925.040 63.5609  47
   4 -10  12 164.635 25.1174  12
  -4  10 -12 176.254 22.0511  48
   4 -10  12 185.286 27.8018  26
   4 -10  12 132.201 23.9533  23
   4 -10  13 295.230 27.2788  12
   4 -10  13 277.128 27.4625  23
   4 -10  13 319.452 30.7438  26
  -4  10 -13 288.724 24.8090  48
   4  -9  -7 277.842 30.3005  37
  -4   9   7 272.317 30.9656  27
   4  -9  -7 269.545 30.5454  47
  -4   9   7 282.915 29.9135  25
  -4   9   7 303.044 33.1771  44
   4  -9  -6 2853.40 109.297  37
   4  -9  -6 2965.91 113.437  47
  -4   9   6 3020.55 107.851  25
  -4   9   6 2842.35 113.661  44
  -4   9   6 2782.78 110.965  27
  -4   9   5 2016.05 95.5363  41
  -4   9   5 2019.90 92.1272  42
  -4   9   5 2201.54 100.610  25
  -4   9   5 2096.72 104.250  44
   4  -9  -5 2187.02 104.158  37
   4  -9  -4 27.2590 22.6786  37
  -4   9   4 31.5259 18.5653  25
   4  -9  -4 10.9016 15.3780  18
  -4   9   4 56.5167 22.8807  41
  -4   9   4 22.1755 24.8881  44
  -4   9   4 15.5459 19.0352  42
  -4   9   3 4640.97 170.262  44
   4  -9  -3 4456.62 161.441  18
  -4   9   3 4448.91 167.312  41
   4  -9  -3 4849.53 175.106  47
  -4   9   3 4666.61 159.546  25
  -4   9   3 4759.64 167.567  42
   4  -9  -3 4584.15 170.935  37
   4  -9  -2 12549.9 302.228  37
   4  -9  -2 11572.5 287.479  18
   4  -9  -2 12943.8 303.294  47
  -4   9   2 12437.1 280.816  25
  -4   9   2 12188.3 292.675  44
  -4   9   2 12305.0 293.488  42
  -4   9   2 12184.5 299.608  41
  -4   9   1 27708.0 471.248  20
   4  -9  -1 29603.3 515.067  47
   4  -9  -1 27620.1 504.062  18
   4  -9  -1 28535.1 512.829  37
  -4   9   1 28764.0 481.102  25
  -4   9   1 29239.0 515.988  41
  -4   9   1 28777.0 496.111  44
  -4   9   1 28863.2 504.497  42
  -4   9   0 5753.38 183.984  20
   4  -9   0 5640.23 200.481  37
   4  -9   0 5804.81 202.449  18
   4  -9   0 5920.69 199.866  47
  -4   9   0 5868.57 181.276  25
  -4   9   0 6325.90 201.671  42
  -4   9   0 6135.76 204.980  41
  -4   9  -1 12608.8 290.191  20
   4  -9   1 12140.5 302.292  47
   4  -9   1 12277.0 310.103  18
   4  -9   1 12228.3 308.327  37
  -4   9  -1 11902.4 266.455  43
  -4   9  -1 12543.3 297.810  42
  -4   9  -1 12443.7 274.446  25
  -4   9  -1 12726.8 306.739  41
   4  -9   1 12760.0 307.631  13
   4  -9   2 1018.58 83.2975  37
  -4   9  -2 1297.45 85.1855  20
   4  -9   2 1086.54 86.9014  18
  -4   9  -2 1022.68 69.0508  25
   4  -9   2 1033.53 82.5746  47
  -4   9  -2 1027.62 70.7547  43
  -4   9  -2 1026.12 77.3090  42
  -4   9  -2 1287.97 87.6151  41
   4  -9   2 1172.60 85.4084  13
  -4   9  -3 455.497 51.3343  20
   4  -9   3 490.703 58.0279  37
   4  -9   3 532.005 61.4483  18
   4  -9   3 496.870 58.8588  47
  -4   9  -3 505.704 50.1257  43
  -4   9  -3 512.477 53.2470  42
  -4   9  -3 545.875 55.8694  41
   4  -9   3 494.187 55.6726  13
   4  -9   3 465.936 52.6805  21
   4  -9   4 156.756 35.2836  37
  -4   9  -4 141.212 31.8917  20
   4  -9   4 129.276 35.1643  18
   4  -9   4 140.285 33.7166  47
  -4   9  -4 129.712 29.4569  43
  -4   9  -4 148.083 30.0246  42
  -4   9  -4 178.094 33.2393  41
   4  -9   4 124.218 33.6226  13
   4  -9   5 27383.1 514.525  37
   4  -9   5 26861.0 515.199  18
   4  -9   5 26842.6 504.615  47
  -4   9  -5 27017.3 454.327  43
   4  -9   5 27342.7 497.341  13
  -4   9  -5 27334.7 468.765  20
  -4   9  -6 12433.9 276.193  43
  -4   9  -6 12795.6 285.118  20
   4  -9   6 12394.4 321.876  18
   4  -9   6 12207.0 313.200  47
   4  -9   6 12521.8 317.236  37
   4  -9   6 12608.9 309.992  13
   4  -9   7 1218.02 90.0777  13
  -4   9  -7 1156.34 76.8880  20
   4  -9   7 1109.06 92.1089  18
   4  -9   7 1145.32 90.5265  37
  -4   9  -7 1241.95 77.6911  43
   4  -9   7 1219.77 91.6495  47
  -4   9  -8 11199.4 249.433  43
   4  -9   8 11174.9 299.222  37
  -4   9  -8 10866.5 247.601  20
   4  -9   8 11027.2 297.347  18
   4  -9   8 11606.2 303.746  47
   4  -9   8 11258.7 288.171  13
   4  -9   9 3071.10 146.566  37
   4  -9   9 3028.78 140.263  12
   4  -9   9 3229.34 150.770  18
  -4   9  -9 2989.59 116.568  43
   4  -9   9 3397.30 151.050  47
   4  -9  10 5283.11 185.894  37
   4  -9  10 5516.25 184.535  12
   4  -9  10 5597.57 190.879  47
  -4   9 -10 5165.03 148.631  43
   4  -9  11 274.572 38.8391  37
   4  -9  11 227.515 36.8588  12
   4  -9  11 271.670 39.9714  26
   4  -9  11 352.925 45.2694  47
  -4   9 -11 253.658 31.6445  39
   4  -9  12 2616.68 107.158  12
   4  -9  12 2775.83 116.117  47
   4  -9  12 2686.42 110.999  26
   4  -9  12 2587.78 105.621  23
   4  -9  13 122.362 21.1617  12
  -4   9 -13 107.497 18.1075  48
   4  -9  13 116.055 22.2766  26
   4  -9  13 108.618 21.1921  23
   4  -9  14 451.617 34.4493  26
   4  -9  14 443.645 34.2108  23
  -4   9 -14 473.612 28.8039  48
  -4   8   9 220.095 25.4852  44
  -4   8   9 196.920 24.8028  27
   4  -8  -9 219.697 25.6651  47
  -4   8   8 4882.47 131.447  25
  -4   8   8 4737.41 143.485  27
  -4   8   8 4860.16 144.354  44
   4  -8  -8 4856.96 136.337  37
   4  -8  -7 135.933 28.2988  37
  -4   8   7 92.6398 22.7721  25
  -4   8   7 110.672 27.4481  44
  -4   8   7 120.119 28.4637  27
   4  -8  -6 950.961 71.1846  37
  -4   8   6 970.406 69.0997  25
  -4   8   6 974.986 77.8205  44
  -4   8   6 962.925 67.1183  41
  -4   8   5 4990.81 173.162  41
  -4   8   5 5187.36 187.264  44
  -4   8   5 5087.78 167.604  42
  -4   8   5 5364.04 173.876  25
   4  -8  -5 5268.17 179.998  37
   4  -8  -4 8409.19 239.325  37
  -4   8   4 8252.31 226.953  25
  -4   8   4 7967.63 234.995  41
  -4   8   4 7853.74 238.674  44
  -4   8   4 7961.83 225.987  42
   4  -8  -3 3354.42 148.964  37
  -4   8   3 3163.39 136.375  25
   4  -8  -3 3195.02 139.803  18
  -4   8   3 3370.00 149.779  44
  -4   8   3 3398.99 145.542  42
  -4   8   3 3164.69 146.227  41
   4  -8  -2 1160.33 87.6290  37
   4  -8  -2 1120.54 83.3319  18
  -4   8   2 1186.26 80.9886  25
  -4   8   2 1236.83 89.5329  44
  -4   8   2 1178.75 86.0241  42
  -4   8   2 1093.57 86.2241  41
  -4   8   1 15818.5 329.625  20
   4  -8  -1 16637.0 363.946  37
   4  -8  -1 16285.0 356.453  18
  -4   8   1 15754.0 347.976  42
   4  -8  -1 17029.0 363.302  47
  -4   8   1 16382.6 334.607  25
  -4   8   1 16449.9 349.176  44
  -4   8   1 16178.3 360.617  41
   4  -8   0 10553.6 280.366  18
  -4   8   0 11008.4 259.037  25
  -4   8   0 10480.2 245.674  43
  -4   8   0 10986.1 274.307  42
  -4   8   0 11180.1 283.214  41
   4  -8   0 10639.7 282.329  37
  -4   8   0 10744.5 262.403  20
   4  -8   0 11236.0 286.213  47
   4  -8   1 76861.5 1062.92  37
  -4   8  -1 77610.2 1025.25  20
   4  -8   1 78789.6 1067.81  18
  -4   8  -1 80862.8 1054.84  41
   4  -8   1 79267.9 1064.51  47
  -4   8  -1 77573.1 1007.68  25
  -4   8  -1 77759.7 998.556  43
   4  -8   1 80669.8 1066.90  13
  -4   8  -1 77382.1 1032.66  42
   4  -8   2 8997.87 256.229  37
  -4   8  -2 9392.48 240.807  20
  -4   8  -2 9168.06 223.625  25
   4  -8   2 8975.28 258.210  18
   4  -8   2 9155.18 255.984  47
  -4   8  -2 9116.42 226.261  43
  -4   8  -2 9134.91 238.675  42
  -4   8  -2 9323.21 244.367  41
   4  -8   2 9172.52 253.610  13
   4  -8   3 2484.02 128.508  37
  -4   8  -3 2432.30 115.494  20
   4  -8   3 2394.43 127.868  18
   4  -8   3 2334.42 124.264  47
   4  -8   3 2475.97 125.214  13
   4  -8   3 2435.94 121.066  21
  -4   8  -3 2419.15 109.927  43
  -4   8  -3 2262.47 111.190  42
  -4   8  -3 2328.10 113.500  41
   4  -8   3 2290.90 118.569  38
  -4   8  -4 27255.5 462.518  20
  -4   8  -4 26450.3 451.902  42
   4  -8   4 26908.0 507.027  18
   4  -8   4 27019.8 503.120  37
  -4   8  -4 27105.8 449.166  43
   4  -8   4 27160.1 492.029  13
   4  -8   4 27333.3 500.555  47
   4  -8   4 26529.6 474.726  21
   4  -8   5 10521.6 285.470  37
  -4   8  -5 10633.1 254.947  20
   4  -8   5 10144.6 285.778  18
   4  -8   5 10388.1 282.335  47
  -4   8  -5 10777.4 246.323  43
   4  -8   5 10419.7 278.952  13
   4  -8   6 103.557 27.3975  37
  -4   8  -6 98.8452 26.6931  20
   4  -8   6 81.5233 29.9144  18
   4  -8   6 91.5684 26.5256  47
  -4   8  -6 110.113 25.8686  43
   4  -8   6 135.610 35.6533  13
  -4   8  -7 8072.87 211.622  20
   4  -8   7 7930.60 255.278  18
  -4   8  -7 8048.33 207.111  43
   4  -8   7 7968.90 252.043  37
   4  -8   7 7857.57 248.794  47
   4  -8   7 7946.40 240.075  13
   4  -8   8 6258.82 220.183  18
   4  -8   8 6043.54 217.861  47
  -4   8  -8 5806.37 170.534  43
   4  -8   8 6133.78 215.689  37
   4  -8   8 5972.25 205.156  13
   4  -8   9 8642.64 256.472  37
   4  -8   9 8655.80 245.923  12
   4  -8   9 8427.85 255.726  47
  -4   8  -9 7979.34 199.564  43
   4  -8  10 1811.17 111.173  37
   4  -8  10 1822.91 106.252  12
   4  -8  10 1696.57 101.280  26
  -4   8 -10 1605.00 79.2047  43
   4  -8  10 1656.05 108.500  47
  -4   8 -10 1725.80 89.2788  39
   4  -8  11 2370.03 121.284  37
   4  -8  11 2361.96 122.630  47
   4  -8  11 2383.03 116.259  12
  -4   8 -11 2106.42 91.0546  39
   4  -8  11 2278.18 112.307  26
   4  -8  12 266.765 37.0704  12
   4  -8  12 303.404 42.9598  47
   4  -8  12 259.900 38.0117  26
   4  -8  12 270.362 36.1288  23
   4  -8  13-2.47421 15.4419  12
   4  -8  13 4.43924 13.3821  26
  -4   8 -13 2.92812 9.93204  48
   4  -8  13-31.1129 19.3436  23
   4  -8  14 294.101 30.6100  23
   4  -8  14 275.762 31.2887  26
  -4   8 -14 264.698 23.5187  48
  -4   7  10 1104.80 57.1203  44
  -4   7  10 1045.37 58.4589  27
   4  -7  -9 85.9071 21.6655  37
  -4   7   9 108.650 27.6588  27
  -4   7   9 86.2640 19.6966  25
  -4   7   9 139.197 27.3769  44
   4  -7  -8 45.8872 16.0782  37
  -4   7   8 73.1773 26.0724  27
  -4   7   8 58.0855 24.8519  44
  -4   7   8 34.5000 18.2141  25
   4  -7  -7 953.137 73.5971  37
  -4   7   7 996.876 80.2774  44
  -4   7   7 1090.84 75.5273  25
   4  -7  -6 3786.21 153.355  37
  -4   7   6 3708.99 161.478  44
  -4   7   6 3695.29 145.849  25
  -4   7   6 3456.64 143.581  41
   4  -7  -5 108.214 31.2635  37
  -4   7   5 125.620 28.7152  49
  -4   7   5 134.957 29.7263  25
  -4   7   5 80.6122 27.4513  44
  -4   7   5 93.0398 24.6324  42
  -4   7   5 100.852 30.7997  41
   4  -7  -4 1462.06 96.7870  37
  -4   7   4 1378.34 88.0004  25
  -4   7   4 1413.04 99.0173  44
  -4   7   4 1377.57 90.7398  42
  -4   7   4 1321.99 92.5450  41
   4  -7  -3 9244.75 254.786  37
  -4   7   3 8559.04 230.611  25
  -4   7   3 8716.99 243.084  42
  -4   7   3 8990.88 254.227  41
  -4   7   3 8860.00 253.116  44
  -4   7   2 9710.71 239.333  20
   4  -7  -2 10189.1 267.534  37
   4  -7  -2 9836.20 258.685  18
  -4   7   2 9753.16 244.278  25
  -4   7   2 9758.58 260.817  44
  -4   7   2 9693.51 256.095  42
  -4   7   2 10020.1 267.632  41
  -4   7   1 3049.65 126.796  20
   4  -7  -1 3440.58 146.872  37
  -4   7   1 3092.40 126.751  25
   4  -7  -1 3033.95 136.872  18
  -4   7   1 3218.26 141.556  41
  -4   7   1 3107.74 134.320  44
  -4   7   1 2758.32 115.360  43
  -4   7   1 3209.11 136.526  42
  -4   7   0 27755.2 459.248  20
   4  -7   0 27414.6 488.644  37
   4  -7   0 26155.6 1051.22  33
   4  -7   0 26238.1 479.502  18
   4  -7   0 27689.5 486.367  47
  -4   7   0 26539.7 447.192  25
  -4   7   0 26879.1 440.988  43
  -4   7   0 26964.4 467.659  42
  -4   7   0 27540.6 477.748  41
  -4   7   0 26186.7 999.297   6
   4  -7   1 4411.04 167.350  37
  -4   7  -1 4482.03 155.371  20
   4  -7   1 4766.17 469.245   1
   4  -7   1 4419.44 422.816  33
  -4   7  -1 4539.91 147.609  43
   4  -7   1 4705.17 170.689  47
  -4   7  -1 4531.77 158.359  42
  -4   7  -1 4661.04 162.842  41
  -4   7  -1 3998.91 382.214   6
   4  -7   2 14053.6 324.122  37
  -4   7  -2 14766.3 303.932  20
   4  -7   2 14747.1 848.360   1
   4  -7   2 14111.5 773.372  33
   4  -7   2 14713.9 325.472  47
  -4   7  -2 14306.7 733.509   6
   4  -7   3 511.745 161.557   1
   4  -7   3 449.924 51.7517  37
  -4   7  -3 462.644 131.887   6
  -4   7  -3 511.932 50.3259  20
   4  -7   3 472.373 142.194  33
   4  -7   3 439.387 52.7149  47
  -4   7  -3 524.788 48.2024  43
   4  -7   4 6241.05 207.563  37
  -4   7  -4 6881.44 191.971  20
   4  -7   4 5901.44 501.978  33
   4  -7   4 6580.03 213.247  18
  -4   7  -4 6942.36 436.371  28
   4  -7   4 6597.34 210.493  47
  -4   7  -4 6737.04 182.198  43
   4  -7   4 6925.82 210.258  13
  -4   7  -4 6267.13 489.234   6
   4  -7   4 7445.24 621.922   1
   4  -7   5 9670.58 266.660  37
  -4   7  -5 9866.56 237.698  20
   4  -7   5 9751.21 269.963  18
  -4   7  -5 9986.75 546.112  28
   4  -7   5 9815.19 269.213  47
  -4   7  -5 9914.35 229.117  43
   4  -7   5 9998.63 263.803  13
   4  -7   5 9503.09 250.338  21
   4  -7   6 11892.0 311.444  37
  -4   7  -6 12270.5 268.321  20
   4  -7   6 12191.2 309.763  18
   4  -7   6 12256.0 300.277  13
   4  -7   6 11925.8 306.642  47
  -4   7  -6 12119.6 258.063  43
   4  -7   7 1817.47 112.598  37
  -4   7  -7 1720.62 89.6804  20
   4  -7   7 1695.47 109.985  18
   4  -7   7 1699.19 114.679  47
  -4   7  -7 1721.22 86.8830  43
   4  -7   7 1721.03 106.456  13
   4  -7   8 1256.25 95.5557  37
   4  -7   8 1170.54 95.6562  47
   4  -7   8 1206.97 93.6869  18
  -4   7  -8 1267.05 74.5440  43
   4  -7   9 5354.27 200.881  37
   4  -7   9 5308.54 189.169  12
   4  -7   9 5599.44 205.703  47
  -4   7  -9 5119.96 152.526  43
   4  -7  10 92.7786 28.6357  47
   4  -7  10 2.16048 26.7610  37
   4  -7  10 66.7348 26.0056  12
   4  -7  10 96.5392 29.8664  26
  -4   7 -10 92.9447 21.4418  39
   4  -7  11 930.396 79.1786  37
   4  -7  11 1024.86 77.0560  12
   4  -7  11 935.796 74.5017  26
   4  -7  11 934.981 81.0341  47
   4  -7  12 1636.87 91.9184  12
   4  -7  12 1655.42 100.910  47
   4  -7  12 1471.49 86.1688  23
   4  -7  12 1438.57 82.4795  22
   4  -7  12 1633.69 91.7415  26
   4  -7  13 333.945 37.3437  12
  -4   7 -13 371.667 33.5483  48
   4  -7  13 311.534 39.3286  26
   4  -7  13 309.814 37.5959  23
  -4   7 -14 1048.33 46.0973  48
   4  -7  14 1047.63 59.9812  23
   4  -7  14 1174.66 62.9150  26
   4  -7  15 98.6470 16.7163  26
   4  -7  15 78.4098 15.4215  23
  -4   6  11 1219.84 64.3950  27
  -4   6  10 96.9662 24.6070  44
  -4   6  10 58.1467 22.9068  27
  -4   6  10 74.0138 16.2845  24
   4  -6  -9 1050.68 75.5497  37
  -4   6   9 844.040 69.4659  44
  -4   6   9 873.054 73.1044  27
  -4   6   9 854.901 60.1208  25
  -4   6   9 889.631 55.6223  24
  -4   6   8 6146.24 182.916  25
  -4   6   8 5995.89 160.577  24
  -4   6   8 6100.65 210.284  27
  -4   6   8 5999.74 204.280  44
  -4   6   7 3529.60 158.444  44
  -4   6   7 3608.71 143.512  25
  -4   6   7 3795.01 128.365  24
  -4   6   7 3663.47 153.138  49
  -4   6   6 3203.02 140.350  49
  -4   6   6 3039.89 132.842  25
  -4   6   6 3094.99 116.330  24
  -4   6   6 2830.27 133.537  41
  -4   6   6 3092.57 150.373  44
  -4   6   5 140.149 26.9351  49
  -4   6   5 37.6255 17.2906  25
  -4   6   5 50.6896 24.0533  44
  -4   6   5 124.274 25.1414  24
  -4   6   5 13.5636 20.7908  41
  -4   6   5 90.1860 22.9635  42
  -4   6   4 3680.67 144.191  49
  -4   6   4 3920.60 147.619  25
  -4   6   4 3719.87 123.596  24
  -4   6   4 3834.46 160.324  44
  -4   6   4 3869.78 157.443  41
  -4   6   4 3687.42 147.614  42
   4  -6  -3 20263.2 863.916   3
  -4   6   3 21195.7 389.822  25
  -4   6   3 21770.4 421.174  44
  -4   6   3 21685.9 406.094  42
  -4   6   3 21845.1 417.902  41
  -4   6   2 14727.0 851.398  35
   4  -6  -2 13757.7 730.498  33
   4  -6  -2 13448.2 727.131  29
  -4   6   2 13948.0 792.156   8
  -4   6   2 13919.4 293.858  25
   4  -6  -2 14024.8 696.481   3
  -4   6   2 14406.9 308.665  42
  -4   6   2 15095.0 322.674  41
  -4   6   1 4007.34 417.353  35
   4  -6  -1 3242.02 343.955  33
   4  -6  -1 3438.00 358.132  29
   4  -6  -1 3494.15 342.603   3
   4  -6   0 10468.9 622.588  33
   4  -6   0 9993.61 610.951  29
  -4   6   0 10863.7 587.024   6
   4  -6   0 10577.6 620.138   3
   4  -6   1 26567.4 1066.88   1
   4  -6   1 26363.9 1013.20  33
   4  -6   1 27454.0 1070.98   3
  -4   6  -1 26476.8 949.733   6
  -4   6  -2 96.3511 75.2709   6
   4  -6   2 209.114 97.4632  33
   4  -6   2 185.843 93.2393   3
  -4   6  -2 117.968 57.8252  28
   4  -6   2 379.526 130.446   1
  -4   6  -3 258.303 100.597   6
   4  -6   3 190.753 101.540  33
   4  -6   3 288.871 144.028   3
  -4   6  -3 141.155 65.8844  28
   4  -6   3 276.765 112.690   1
  -4   6  -4 4143.84 377.538   6
   4  -6   4 3965.40 405.428  33
  -4   6  -4 4298.41 332.819  28
   4  -6   4 4230.33 473.240   3
   4  -6   4 4384.40 454.518   1
  -4   6  -5 14971.6 649.225  28
   4  -6   5 16559.5 922.707   1
  -4   6  -5 16124.3 767.943   6
   4  -6   6 3186.38 411.038   1
  -4   6  -6 2943.32 259.194  32
   4  -6   6 2869.83 399.007   5
  -4   6  -6 2905.06 291.056  28
   4  -6   6 2804.63 137.500  47
  -4   6  -6 3062.11 335.265   6
   4  -6   7 6330.13 212.929  37
   4  -6   7 6180.45 209.339  18
   4  -6   7 6056.00 214.432  47
  -4   6  -7 6142.98 166.708  43
   4  -6   7 6114.89 200.922  21
   4  -6   8 2890.67 144.049  37
   4  -6   8 2763.83 133.176  12
   4  -6   8 2847.00 146.822  47
   4  -6   9 65.5413 28.3213  47
   4  -6   9 64.2471 26.3280  37
   4  -6   9 82.1647 28.6467  12
   4  -6   9 137.537 30.8435  26
  -4   6  -9 107.491 23.5766  39
   4  -6  10 1726.14 113.953  37
   4  -6  10 1687.12 103.034  12
   4  -6  10 1728.16 103.662  26
   4  -6  10 1762.73 114.160  47
  -4   6 -10 1771.90 88.1352  39
   4  -6  11 0.50434 21.8812  37
   4  -6  11 5.73994 18.5036  12
   4  -6  11 0.58799 21.7151  47
   4  -6  11 9.06778 18.9638  26
   4  -6  12 432.652 47.9646  12
  -4   6 -12 488.020 41.6434  48
   4  -6  12 477.087 57.4348  47
   4  -6  12 448.850 50.7422  26
   4  -6  12 367.745 44.4829  23
   4  -6  12 491.883 49.8475  22
   4  -6  13 1794.40 87.8562  12
  -4   6 -13 1785.32 71.3810  48
   4  -6  13 1772.35 87.8919  23
   4  -6  13 1700.99 83.3576  22
   4  -6  13 1862.02 91.9846  26
   4  -6  14 16.7489 13.4603  26
   4  -6  14 14.0580 12.9842  23
   4  -6  15 140.066 20.0038  26
   4  -6  15 132.390 18.7783  23
  -4   5  12 529.888 31.9686  24
  -4   5  12 516.925 41.4292  27
  -4   5  11 9.80964 15.2887  27
  -4   5  11 19.3730 18.6747  44
  -4   5  11 15.7778 11.6823  24
  -4   5  10 3264.23 144.292  27
  -4   5  10 3353.31 115.350  24
  -4   5  10 3215.50 137.003  44
  -4   5   9 1758.71 91.3331  25
  -4   5   9 1884.62 112.127  44
  -4   5   9 1949.20 91.7928  24
  -4   5   9 1872.46 115.983  27
  -4   5   8 10.7906 26.0354  27
  -4   5   8 17.3578 21.3149  44
  -4   5   8 24.0336 14.7756  24
  -4   5   7 828.960 69.7939  41
  -4   5   7 647.050 59.4620  25
  -4   5   7 650.204 70.1598  44
  -4   5   7 693.017 56.3434  24
  -4   5   7 604.410 62.5747  49
  -4   5   6 4665.67 162.758  25
  -4   5   6 4832.18 176.213  49
  -4   5   6 4593.22 182.253  44
  -4   5   6 4769.36 150.600  24
  -4   5   6 4544.42 169.264  41
  -4   5   5 735.007 61.8555  25
  -4   5   5 567.874 57.0691  49
  -4   5   5 589.188 59.5897  41
  -4   5   5 595.393 61.7437  44
  -4   5   5 649.032 57.5847  42
  -4   5   4 36233.2 587.190  44
   4  -5  -4 33064.7 1097.67   3
  -4   5   4 35942.7 1381.95  35
   4  -5  -4 35181.2 1197.00  33
   4  -5  -4 34224.7 1144.89  29
  -4   5   4 31768.3 1291.30   8
  -4   5   4 36555.0 555.464  25
  -4   5   4 37097.9 580.533  41
   4  -5  -3 24334.1 910.095   3
  -4   5   3 27712.9 1146.51  35
   4  -5  -3 26197.5 996.328  33
   4  -5  -3 26342.3 969.016  29
  -4   5   3 25339.3 1085.48   8
  -4   5   2 182.191 84.7438  35
   4  -5  -2 65.2446 64.7043  33
   4  -5  -2 107.694 61.0745   3
   4  -5  -2 133.571 77.5135  29
  -4   5   2 124.365 74.8121   8
  -4   5   1 6071.54 472.031  35
   4  -5  -1 6622.65 469.911  33
   4  -5  -1 6374.38 448.003  29
  -4   5   1 6160.55 402.854   6
   4  -5  -1 6259.24 441.715   3
   4  -5   0 32772.9 1063.10   1
   4  -5   0 29174.6 1018.03  33
   4  -5   0 29132.1 996.516  29
  -4   5   0 29366.9 936.350   6
   4  -5   0 31583.1 1054.46   3
   4  -5   1 18060.0 799.943   1
   4  -5   1 17501.5 784.169  33
  -4   5  -1 18568.9 630.519  28
  -4   5  -1 17794.1 719.003   6
   4  -5   1 19913.8 868.884   3
   4  -5   2 2133.77 274.171  33
  -4   5  -2 2287.44 220.126  28
   4  -5   2 2559.33 328.512   3
  -4   5  -2 2158.68 248.683   6
   4  -5   2 2194.39 281.846   1
   4  -5   3 9768.93 602.575  33
  -4   5  -3 10923.6 502.315  28
   4  -5   3 11890.2 766.818   3
   4  -5   3 11834.0 682.673   1
  -4   5  -3 10136.4 553.610   6
  -4   5  -4 107.987 51.8728   6
   4  -5   4 196.848 87.0230  33
   4  -5   4-1.59322 66.1841   3
  -4   5  -4 4.88124 22.7073  32
   4  -5   4 70.3779 63.2715   1
  -4   5  -4 35.7158 33.6059  28
  -4   5  -5 6304.11 356.824  32
  -4   5  -5 6851.08 419.262  28
   4  -5   5 7773.91 631.639   7
   4  -5   5 7058.81 566.561   1
   4  -5   5 6379.32 569.503   3
  -4   5  -5 6770.16 470.767   6
  -4   5  -6 885.226 173.629   6
   4  -5   6 572.706 166.763   1
  -4   5  -6 683.514 125.087  32
   4  -5   6 749.899 203.054   5
  -4   5  -6 667.348 131.452  28
   4  -5   6 603.725 176.600   7
   4  -5   7 1432.69 89.1897  12
   4  -5   7 1204.18 87.4282  18
  -4   5  -7 1250.18 173.976  32
   4  -5   7 1099.63 240.012   5
   4  -5   7 1154.95 86.4175  37
  -4   5  -7 1418.44 200.091  28
   4  -5   7 1241.60 89.4164  47
   4  -5   7 1335.83 262.849   1
  -4   5  -7 1093.21 197.420   6
   4  -5   8 400.465 48.8771  12
   4  -5   8 404.901 54.8624  47
   4  -5   8 479.145 59.0732  37
   4  -5   8 386.433 51.0103  21
  -4   5  -8 454.680 45.5028  39
   4  -5   9 1442.10 104.898  37
   4  -5   9 1323.97 92.1514  12
   4  -5   9 1514.40 106.179  47
   4  -5   9 1422.60 98.2637  40
   4  -5   9 1433.51 90.2239  26
   4  -5   9 1575.02 102.720  21
  -4   5  -9 1503.67 82.8009  39
   4  -5  10 495.795 63.8309  37
   4  -5  10 533.252 59.8026  12
   4  -5  10 480.309 64.7124  47
   4  -5  10 520.876 55.5760  26
   4  -5  10 468.536 57.0832  40
   4  -5  10 525.076 59.8314  21
   4  -5  11-16.3260 25.4096  12
   4  -5  11 3.69574 19.2932  23
   4  -5  11 83.2610 31.8174  47
   4  -5  11 20.3100 18.2626  26
  -4   5 -11 52.4849 17.1809  48
   4  -5  11 22.5474 20.1676  22
   4  -5  11 3.63413 22.5356  40
   4  -5  12 405.737 47.8862  12
   4  -5  12 515.663 60.7111  47
   4  -5  12 468.041 50.8221  26
  -4   5 -12 418.579 36.9384  48
   4  -5  12 366.807 44.4312  23
   4  -5  12 402.592 46.3294  22
   4  -5  12 427.206 51.3583  40
   4  -5  13 578.999 50.9928  23
   4  -5  13 667.397 53.6913  22
   4  -5  13 665.426 59.0076  40
   4  -5  13 559.319 50.2132  26
   4  -5  13 633.114 53.1885  12
   4  -5  14 119.338 21.6849  26
   4  -5  14 108.740 21.8201  23
   4  -5  15 319.284 28.7236  26
   4  -5  15 284.257 25.2173  23
  -4   4  13 527.623 32.4564  24
  -4   4  13 481.291 37.6308  27
  -4   4  12 367.291 43.3837  27
  -4   4  12 391.827 34.9340  24
  -4   4  11 5271.80 181.179  27
  -4   4  11 4950.30 169.363  44
  -4   4  11 5114.24 146.386  24
  -4   4  10 51.6680 25.4290  27
  -4   4  10 107.636 28.2364  44
  -4   4  10 55.1722 20.7115  24
  -4   4   9 2651.99 136.894  44
  -4   4   9 2684.66 140.906  27
  -4   4   9 2840.47 118.990  24
  -4   4   8 280.123 43.5136  49
  -4   4   8 297.024 39.2745  25
  -4   4   8 244.952 44.2509  44
  -4   4   8 266.751 36.7881  24
  -4   4   8 219.258 40.8787  27
  -4   4   7 11445.4 281.681  41
  -4   4   7 12491.1 303.670  49
  -4   4   7 11807.4 304.254  44
  -4   4   7 11903.1 272.117  25
  -4   4   7 12634.7 268.818  24
  -4   4   6 1046.92 72.3238  25
  -4   4   6 1013.11 80.4096  44
  -4   4   6 1018.55 67.4087  24
  -4   4   6 1164.58 82.2371  49
  -4   4   6 1038.14 76.1155  41
  -4   4   5 197.220 90.5922  35
   4  -4  -5 199.191 97.7349  33
   4  -4  -5 130.828 70.3428   3
   4  -4  -5 156.112 71.2053  29
  -4   4   5 112.269 79.8673   8
  -4   4   4 379.206 127.882  35
   4  -4  -4 351.130 110.688  33
   4  -4  -4 372.179 103.082   3
   4  -4  -4 340.269 101.833  29
  -4   4   4 492.310 156.224   8
   4  -4  -3 10023.5 538.515   3
  -4   4   3 10809.6 645.960  35
   4  -4  -3 11149.7 603.325  33
   4  -4  -3 10050.8 531.195  29
  -4   4   3 11040.1 661.411   8
   4  -4  -2 32735.6 1009.78   3
  -4   4   2 35245.0 1145.24  35
   4  -4  -2 35997.9 1099.80  33
   4  -4  -2 35116.3 1014.89  29
   4  -4  -1 144385. 2453.67   3
  -4   4   1 140206. 2487.69  35
   4  -4  -1 142297. 2482.75  33
   4  -4  -1 134775. 2346.72  29
  -4   4   1 141009. 2258.39   6
   4  -4   0 30861.9 948.121   1
  -4   4   0 31267.3 967.890  35
   4  -4   0 29212.2 969.676  33
   4  -4   0 30229.2 922.924  29
  -4   4   0 32540.8 827.958  28
  -4   4   0 31515.7 901.257   6
   4  -4   0 32879.8 1031.33   3
  -4   4  -1 407.650 99.0802   6
   4  -4   1 489.875 128.143  33
   4  -4   1 517.655 134.552   3
  -4   4  -1 485.613 98.4480  28
   4  -4   1 393.463 105.196   1
   4  -4   2 6351.05 452.283  33
  -4   4  -2 6296.31 352.759  28
   4  -4   2 7109.93 472.647   1
   4  -4   2 7319.23 543.384   3
  -4   4  -2 6260.77 397.242   6
   4  -4   3 9963.32 589.223  33
  -4   4  -3 9915.86 390.817  32
  -4   4  -3 9244.95 444.779  28
   4  -4   3 10166.8 597.024   1
   4  -4   3 11036.2 717.537   3
  -4   4  -3 9894.07 515.904   6
   4  -4   4 5028.81 431.455  33
  -4   4  -4 5618.07 309.206  32
  -4   4  -4 5456.29 347.752  28
   4  -4   4 6055.63 480.487   1
   4  -4   4 5679.84 537.184   3
  -4   4  -4 5819.21 402.707   6
  -4   4  -5 79.9747 62.8340   6
   4  -4   5 164.477 72.2367   1
  -4   4  -5 112.525 51.3616  32
   4  -4   5 33.1269 64.3115   5
  -4   4  -5 74.4271 43.4685  28
   4  -4   5 50.3481 55.5222   7
   4  -4   5 84.9472 75.0579   3
   4  -4   6 11068.6 707.598   5
  -4   4  -6 11212.8 499.047  32
  -4   4  -6 11031.2 535.942  28
  -4   4  -6 10701.5 592.513   6
   4  -4   6 10976.7 737.614   7
   4  -4   6 11314.1 720.153   1
   4  -4   7 1826.44 297.211   5
  -4   4  -7 2350.28 238.730  32
  -4   4  -7 2080.15 236.389  28
   4  -4   7 1968.24 318.822   7
  -4   4  -7 1881.19 250.611   6
   4  -4   7 2115.47 324.019   1
   4  -4   8 1171.77 90.9150  37
   4  -4   8 1235.44 85.0849  12
   4  -4   8 1022.02 72.9522  26
   4  -4   8 1288.53 262.370   7
   4  -4   8 1061.72 84.0986  40
   4  -4   8 1137.41 87.3173  47
   4  -4   8 1121.79 86.0128  21
  -4   4  -8 1163.14 71.0279  39
   4  -4   9 10220.0 266.493  12
   4  -4   9 9796.80 249.705  26
   4  -4   9 10802.6 291.144  47
   4  -4   9 10906.1 293.997  37
   4  -4   9 10498.6 283.788  40
   4  -4   9 10540.6 282.768  21
  -4   4  -9 10676.3 236.003  39
   4  -4  10 431.969 59.6579  37
   4  -4  10 380.038 48.6041  12
  -4   4 -10 469.233 42.9006  48
   4  -4  10 430.261 49.8224  26
   4  -4  10 455.652 57.5623  21
   4  -4  10 389.613 53.5784  40
   4  -4  10 432.460 59.0867  47
   4  -4  11 358.129 46.7567  12
   4  -4  11 418.954 58.8606  47
   4  -4  11 384.441 48.4601  26
   4  -4  11 456.442 53.7109  22
   4  -4  11 342.574 42.8526  23
   4  -4  11 485.023 58.2918  21
   4  -4  11 363.067 51.1389  40
  -4   4 -11 510.419 40.9740  48
   4  -4  12 99.1287 25.9016  12
   4  -4  12 124.893 29.5216  22
   4  -4  12 136.253 24.4432  26
   4  -4  12 92.8094 24.6844  23
   4  -4  12 128.567 35.7273  40
   4  -4  12 142.575 34.9024  21
   4  -4  13 3798.70 144.897  40
   4  -4  13 3296.23 118.447  23
   4  -4  13 3582.78 126.873  22
   4  -4  13 3588.22 130.235  26
   4  -4  13 3614.57 128.763  12
   4  -4  14 676.522 49.8354  26
   4  -4  14 590.199 45.2027  24
   4  -4  14 538.602 40.6870  23
   4  -4  15 364.057 30.0985  26
  -4   3  13 247.465 33.2163  27
  -4   3  13 273.083 28.9699  24
  -4   3  12 104.065 29.7264  27
  -4   3  12 74.3616 19.5676  24
  -4   3  11 321.398 48.4384  44
  -4   3  11 315.881 39.7573  24
  -4   3  11 296.080 46.4548  27
  -4   3  10 10.8014 27.0230  27
  -4   3  10 20.5632 19.5620  44
  -4   3  10 32.8813 22.6855  24
  -4   3   9 869.274 80.7841  27
  -4   3   9 999.528 84.6680  44
  -4   3   9 974.183 70.5092  24
  -4   3   8 49323.1 744.387  49
  -4   3   8 48475.0 743.046  44
  -4   3   8 48663.5 688.594  24
  -4   3   8 46435.6 744.768  27
  -4   3   7 8346.49 243.761  27
  -4   3   7 8374.14 211.826  25
  -4   3   7 8766.64 242.055  49
  -4   3   7 8706.60 246.006  44
  -4   3   7 8929.09 216.251  24
  -4   3   7 8295.12 225.481  41
  -4   3   6 60267.3 1778.66  35
   4  -3  -6 60600.0 1594.62  33
   4  -3  -6 57012.2 1360.52  29
  -4   3   6 58612.5 1788.63   8
   4  -3  -5 4185.60 351.590   3
  -4   3   5 4837.59 455.395  35
   4  -3  -5 5258.04 418.006  33
   4  -3  -5 4391.32 327.992  29
  -4   3   5 4756.25 462.251   8
   4  -3  -4 10166.9 533.484   3
  -4   3   4 11796.6 673.090  35
   4  -3  -4 11522.2 598.415  33
   4  -3  -4 10925.3 508.097  29
  -4   3   4 10771.7 668.387   8
  -4   3   3 684.950 160.203   8
  -4   3   3 682.464 150.639  35
   4  -3  -3 890.455 159.352  33
   4  -3  -3 556.114 120.383   3
   4  -3  -3 771.534 129.783  29
   4  -3  -2 5140.25 362.488   3
  -4   3   2 4861.62 375.240  35
   4  -3  -2 4734.68 361.467  33
   4  -3  -2 5053.05 326.709  29
  -4   3   2 4860.68 295.377   6
   4  -3  -1 13617.1 602.826   3
  -4   3   1 12257.4 569.825  35
   4  -3  -1 12299.5 578.333  33
   4  -3  -1 11833.9 504.503  29
  -4   3   1 12953.2 494.529  28
  -4   3   1 12627.8 499.772   6
  -4   3   0 91852.9 1724.08  35
   4  -3   0 94289.3 1850.44  33
  -4   3   0 95630.2 1610.55  28
   4  -3   0 92880.1 1690.69   1
  -4   3   0 96450.1 1686.88   6
  -4   3  -1 1002.72 142.015  35
   4  -3   1 1074.36 173.469  33
  -4   3  -1 1479.89 129.505  32
  -4   3  -1 1278.19 149.362  28
   4  -3   1 1119.39 166.158   1
  -4   3  -1 1111.45 153.113   6
   4  -3   1 1241.97 202.228   3
  -4   3  -2 398.497 94.4074   6
   4  -3   2 372.394 108.184  33
  -4   3  -2 533.934 83.5178  32
   4  -3   2 379.531 104.019   1
   4  -3   2 393.973 131.638   3
  -4   3  -2 449.920 92.2906  28
  -4   3  -3 555.670 117.758   6
   4  -3   3 619.951 142.520   1
   4  -3   3 428.865 125.499  33
  -4   3  -3 675.035 98.6743  32
   4  -3   3 587.286 172.689   3
  -4   3  -4 42412.4 944.683  32
  -4   3  -4 43254.4 1038.42  28
   4  -3   4 44492.7 1317.90   1
   4  -3   4 43400.6 1495.58   3
  -4   3  -4 42322.3 1125.75   6
   4  -3   5 688.892 162.382   1
  -4   3  -5 711.863 143.775   6
  -4   3  -5 565.151 105.681  32
   4  -3   5 598.423 156.848   5
  -4   3  -5 643.526 123.534  28
   4  -3   5 731.138 203.820   7
   4  -3   6 15143.2 790.452   5
  -4   3  -6 14866.9 579.290  32
  -4   3  -6 14820.1 603.023  30
  -4   3  -6 15180.4 622.330  28
   4  -3   6 15211.9 818.693   1
   4  -3   6 14941.6 872.173   7
  -4   3  -6 14555.9 681.427   6
   4  -3   7 33803.2 1268.08   5
  -4   3  -7 35821.2 982.633  32
  -4   3  -7 34719.7 1008.93  30
  -4   3  -7 37075.2 1034.79  28
   4  -3   7 33886.8 1244.20   4
   4  -3   7 32062.3 1300.63   7
  -4   3  -7 35427.9 1145.30   6
   4  -3   8 19483.2 380.523  12
   4  -3   8 20270.7 414.687  37
   4  -3   8 19769.7 988.076   5
  -4   3  -8 20509.4 786.774  30
  -4   3  -8 18888.9 742.203  28
   4  -3   8 18390.1 356.175  26
   4  -3   8 19780.9 406.387  47
   4  -3   8 18725.3 936.322   4
   4  -3   8 19090.5 1015.50   7
   4  -3   8 20305.6 408.310  40
   4  -3   8 20007.3 407.081  21
  -4   3  -8 19666.5 858.516   6
   4  -3   9 5083.96 179.474  12
   4  -3   9 5547.26 204.247  37
   4  -3   9 5396.56 196.227  47
  -4   3  -9 5288.19 144.669  48
   4  -3   9 5128.70 169.979  26
   4  -3   9 5101.83 191.648  40
   4  -3   9 5378.10 198.317  21
   4  -3  10 4998.64 176.462  12
   4  -3  10 4994.72 193.368  21
   4  -3  10 4790.90 166.119  26
   4  -3  10 4347.55 154.964  23
   4  -3  10 4760.18 173.442  22
   4  -3  10 5199.56 197.395  47
   4  -3  10 4779.13 187.711  40
   4  -3  11 119.927 29.7361  12
   4  -3  11 99.6059 20.5795  26
   4  -3  11 85.6686 22.5268  23
   4  -3  11 138.821 31.1585  22
   4  -3  11 112.487 34.1707  40
   4  -3  11 107.582 33.2231  21
  -4   3 -11 84.4994 18.0653  45
   4  -3  12 707.262 69.3065  40
   4  -3  12 678.353 67.0177  21
   4  -3  12 538.297 49.0244  23
   4  -3  12 697.576 61.0490  22
   4  -3  12 614.186 55.5546  26
   4  -3  12 611.384 57.7305  12
   4  -3  13 677.760 54.9340  26
   4  -3  13 608.664 46.8537  23
   4  -3  13 653.733 52.9709  22
   4  -3  13 683.627 63.8066  40
   4  -3  14 1490.53 61.8323  23
   4  -3  14 1554.28 75.4673  24
   4  -3  14 1585.52 69.3073  22
   4  -3  15 2.15882 9.30936  26
  -4   2  14 114.603 21.2025  27
  -4   2  14 110.860 18.6677  24
  -4   2  13 3200.63 110.306  24
  -4   2  13 3159.13 127.382  27
  -4   2  12 302.934 47.2714  27
  -4   2  12 356.349 42.6257  24
  -4   2  11 6077.43 180.952  24
  -4   2  11 5818.05 211.388  27
  -4   2  11 5761.67 199.793  44
  -4   2  10 7361.80 232.659  44
  -4   2  10 7158.23 237.973  27
  -4   2  10 7412.36 206.786  24
  -4   2   9 7300.45 233.804  27
  -4   2   9 7768.69 209.081  24
  -4   2   9 7724.11 197.038  23
  -4   2   8 2424.22 126.251  27
  -4   2   8 2356.21 108.831  24
  -4   2   8 2619.34 104.966  23
  -4   2   7 31928.0 1312.77   8
   4  -2  -7 30526.9 1066.36   3
  -4   2   7 34176.9 1321.44  35
   4  -2  -7 33355.9 1151.43  33
   4  -2  -6 12352.7 620.124   3
  -4   2   6 12482.9 743.122  35
   4  -2  -6 12973.9 660.916  33
  -4   2   6 14006.9 803.150   8
   4  -2  -5 1571.73 206.378   3
  -4   2   5 1873.18 267.230  35
   4  -2  -5 1924.61 239.775  33
  -4   2   5 1780.93 270.580   8
   4  -2  -4 31779.9 942.525   3
  -4   2   4 31833.1 1069.16  35
   4  -2  -4 31573.3 969.350  33
   4  -2  -4 30450.6 803.505  29
  -4   2   4 31396.4 1106.10   8
  -4   2   3 230.613 85.9228  35
   4  -2  -3 130.901 53.6906  33
   4  -2  -3 136.635 55.9937   3
   4  -2  -3 112.978 46.6909  29
  -4   2   3 161.929 78.8281   8
   4  -2  -2 1987.59 212.503   3
  -4   2   2 2084.70 178.271   6
  -4   2   2 1914.07 219.825  35
   4  -2  -2 2364.22 238.797  33
   4  -2  -2 1727.22 168.355  29
   4  -2  -1 74666.1 1511.40   3
  -4   2   1 71810.5 1439.64  35
   4  -2  -1 72620.1 1484.85  33
  -4   2   1 72013.7 1332.30  28
  -4   2   1 69804.6 1295.33   6
  -4   2   0 106787. 1797.69  35
   4  -2   0 101145. 1914.66  33
  -4   2   0 110176. 1574.85  32
  -4   2   0 111323. 1764.35  28
  -4   2   0 108106. 1772.43   6
   4  -2   0 103240. 1728.28   1
   4  -2   0 113422. 2068.87   3
  -4   2  -1 22961.6 643.671  35
   4  -2   1 23100.5 812.875  33
  -4   2  -1 24248.5 595.983  32
  -4   2  -1 24463.9 688.426  28
   4  -2   1 23118.8 740.176   1
  -4   2  -1 23517.0 708.625   6
   4  -2   1 25294.3 923.209   3
   4  -2   2 4446.10 359.453  33
  -4   2  -2 4994.21 261.905  32
  -4   2  -2 4769.65 294.446  28
   4  -2   2 5096.13 446.017   3
  -4   2  -2 4947.34 323.029   6
   4  -2   2 4858.65 351.036   1
  -4   2  -3 45059.2 939.515  32
  -4   2  -3 45431.8 920.049  30
  -4   2  -3 46846.8 1042.92  28
   4  -2   3 46612.9 1483.18   3
  -4   2  -3 43142.0 1084.75   6
   4  -2   3 48780.3 1272.27   1
  -4   2  -4 12997.5 484.328  32
   4  -2   4 12596.7 639.852   5
  -4   2  -4 11946.2 460.713  30
  -4   2  -4 13160.4 528.211  28
   4  -2   4 12797.8 662.139   1
   4  -2   4 13809.4 829.226   7
   4  -2   4 11821.4 731.923   3
  -4   2  -4 12531.8 566.156   6
   4  -2   5 10015.3 582.385   5
  -4   2  -5 10294.3 453.042  32
  -4   2  -5 9136.47 429.351  30
  -4   2  -5 9578.26 464.497  28
   4  -2   5 10063.7 700.723   7
  -4   2  -5 9325.44 514.600   6
   4  -2   6 2194.86 284.747   5
  -4   2  -6 2407.52 226.588  32
  -4   2  -6 2102.85 215.461  30
  -4   2  -6 2097.86 221.504  28
   4  -2   6 2243.78 329.003   7
  -4   2  -6 2510.02 277.492   6
   4  -2   6 2137.28 288.252   4
  -4   2  -7 445.705 122.185   6
  -4   2  -7 544.242 115.070  32
   4  -2   7 368.504 136.126   5
  -4   2  -7 462.081 109.318  30
  -4   2  -7 380.173 95.8280  28
   4  -2   7 447.166 141.050   4
   4  -2   7 566.074 167.887   7
   4  -2   8 2760.54 124.046  12
   4  -2   8 2978.67 141.276  37
   4  -2   8 2831.62 132.619  36
  -4   2  -8 2850.31 278.380  28
   4  -2   8 2928.06 138.045  47
   4  -2   8 2893.21 366.380   4
   4  -2   8 2656.58 112.780  26
  -4   2  -8 2973.74 327.450   6
   4  -2   8 2674.94 120.881  22
   4  -2   8 2772.01 136.586  40
   4  -2   8 2925.51 141.834  21
   4  -2   9 735.467 66.5292  12
   4  -2   9 826.221 76.5726  40
   4  -2   9 754.335 61.7597  26
  -4   2  -9 865.885 63.5463  45
   4  -2   9 686.924 57.1738  23
   4  -2   9 796.393 67.8375  22
   4  -2   9 848.442 79.2264  21
   4  -2   9 819.833 75.1836  47
   4  -2  10 1405.41 91.8996  12
  -4   2 -10 1450.99 81.2561  45
   4  -2  10 1349.01 84.0390  26
   4  -2  10 1239.38 76.0410  23
   4  -2  10 1349.30 90.4337  22
   4  -2  10 1342.59 101.090  40
   4  -2  10 1464.69 104.327  21
   4  -2  11 4112.82 148.487  26
   4  -2  11 4345.35 160.837  22
   4  -2  11 4234.53 173.345  40
   4  -2  11 4321.59 177.918  21
   4  -2  11 4320.47 159.991  12
   4  -2  12 91.2783 29.4118  26
   4  -2  12-10.8488 25.4858  22
   4  -2  12 32.4992 24.7011  40
   4  -2  12 104.758 29.4926  12
   4  -2  13 18.9542 20.3496  26
   4  -2  13-19.7216 17.9871  22
   4  -2  14 977.349 53.5707  26
   4  -2  14 931.016 51.0246  22
   4  -2  14 862.087 55.3405  24
  -4   1  14 328.427 38.3502  27
  -4   1  14 368.185 35.0836  24
  -4   1  13 4320.04 136.854  24
  -4   1  13 4067.06 154.488  27
  -4   1  12 12881.1 282.761  24
  -4   1  12 12370.3 310.900  27
  -4   1  11 21200.0 441.525  27
  -4   1  11 21519.7 394.327  24
  -4   1  10 1048.09 75.0940  24
  -4   1  10 1138.14 73.5810  23
  -4   1  10 989.597 85.1835  27
  -4   1  10 973.813 82.1513  44
  -4   1   9 9286.55 264.498  27
  -4   1   9 9607.99 262.220  44
  -4   1   9 9270.87 229.487  24
  -4   1   9 9856.84 221.142  23
  -4   1   8 24305.1 1120.28  35
   4  -1  -8 20438.1 904.649   3
   4  -1  -8 22361.9 949.899  33
  -4   1   8 23350.7 1141.94   8
  -4   1   8 26313.1 477.855  27
  -4   1   8 25957.9 428.097  24
  -4   1   8 28817.6 422.107  23
  -4   1   8 26743.4 475.244  44
   4  -1  -7 7164.36 484.134   3
  -4   1   7 8259.25 605.403  35
   4  -1  -7 7571.26 503.090  33
  -4   1   7 7786.38 608.405   8
  -4   1   6 8226.13 585.944   8
   4  -1  -6 6961.61 445.113   3
  -4   1   6 7796.15 556.523  35
   4  -1  -6 7449.50 467.313  33
  -4   1   5 3019.94 333.601   8
   4  -1  -5 3415.38 292.391   3
  -4   1   5 3211.02 333.569  35
   4  -1  -5 3248.81 292.628  33
   4  -1  -4 53170.6 1229.39   3
  -4   1   4 50736.8 1342.83  35
   4  -1  -4 53637.2 1246.71  33
   4  -1  -3 71590.4 1452.06   3
  -4   1   3 72589.1 1551.26  35
   4  -1  -3 76046.9 1499.90  33
  -4   1   3 76332.8 1636.14   8
   4  -1  -2 79041.4 1528.82   3
  -4   1   2 74469.6 1512.80  35
   4  -1  -2 76925.5 1505.69  33
  -4   1   2 77629.1 1302.56   6
  -4   1   1 73416.6 1377.33  35
   4  -1  -1 72164.8 1450.56  33
  -4   1   1 69063.8 1215.79  32
  -4   1   1 72528.3 1296.07   6
  -4   1   0 201.397 59.9328   6
  -4   1   0 264.395 66.5120  35
   4  -1   0 241.969 81.2316  33
  -4   1   0 190.841 54.4583  32
   4  -1   0 191.391 72.9371   3
  -4   1   0 249.921 66.4843  28
   4  -1   1 35130.7 748.055   2
   4  -1   1 37712.3 1052.66  33
  -4   1  -1 37397.8 806.578  32
  -4   1  -1 39671.2 914.350  28
  -4   1  -1 37393.5 909.819   6
   4  -1   1 40142.3 1208.66   3
  -4   1  -2 34.6752 23.0098   6
   4  -1   2 27.0525 34.0975  33
  -4   1  -2 57.8977 30.9710  32
   4  -1   2 20.6677 56.3667   3
  -4   1  -2 216.720 48.5808  30
  -4   1  -2 193.862 57.7691  28
  -4   1  -3 59198.8 1126.53  32
   4  -1   3 60840.6 1377.92   5
  -4   1  -3 53494.2 1020.47  30
  -4   1  -3 53572.2 1150.92  28
   4  -1   3 57135.4 1627.56   3
  -4   1  -3 55993.8 1252.83   6
   4  -1   4 1100.51 169.739   5
  -4   1  -4 1025.97 135.034  32
  -4   1  -4 1047.30 128.688  30
  -4   1  -4 1370.24 166.911  28
   4  -1   4 1115.30 237.196   7
  -4   1  -4 1073.05 164.188   6
  -4   1  -5 15175.7 669.794   6
   4  -1   5 16176.7 698.515   5
  -4   1  -5 16823.3 601.406  32
  -4   1  -5 15543.1 560.604  30
  -4   1  -5 15357.1 590.993  28
   4  -1   5 15904.1 863.133   7
   4  -1   5 16073.5 777.731   4
  -4   1  -6 1500.43 180.997  32
  -4   1  -6 1576.36 185.503  30
  -4   1  -6 1642.15 191.361  28
   4  -1   6 1428.45 263.744   7
   4  -1   6 1555.69 250.056   4
  -4   1  -6 1545.85 223.503   6
  -4   1  -7 1523.50 196.702  32
  -4   1  -7 1530.30 194.939  30
  -4   1  -7 1522.83 195.031  28
   4  -1   7 1324.71 259.869   7
   4  -1   7 1595.37 265.258   4
  -4   1  -7 1557.35 233.589   6
   4  -1   8 2296.67 113.623  12
   4  -1   8 2361.98 124.191  36
  -4   1  -8 2568.81 108.036  45
   4  -1   8 2462.74 123.635  47
   4  -1   8 2239.22 101.730  26
   4  -1   8 2169.71 109.023  22
   4  -1   8 2321.70 126.582  40
   4  -1   8 2378.84 129.413  21
   4  -1   9 51.6608 23.1163  12
   4  -1   9 35.5248 22.2465  36
   4  -1   9 33.9864 19.2916  26
  -4   1  -9 55.9261 19.3259  45
   4  -1   9 44.8003 22.9200  22
   4  -1   9 56.7309 29.3000  40
   4  -1   9 77.8217 32.8851  21
   4  -1  10 1621.62 104.345  36
  -4   1 -10 1733.33 89.2066  45
   4  -1  10 1769.08 112.964  40
   4  -1  10 1723.27 102.695  22
   4  -1  10 1712.55 93.0842  26
   4  -1  10 1837.44 118.362  21
   4  -1  10 1859.61 105.371  12
   4  -1  11 44.0301 24.3275  26
   4  -1  11-18.4093 25.2959  22
   4  -1  11 14.5802 25.6293  21
   4  -1  11 14.0156 26.6445  40
   4  -1  12 5228.09 155.289  26
   4  -1  12 5311.54 167.366  22
   4  -1  12 5279.56 186.231  40
   4  -1  13 64.6294 18.2226  26
   4  -1  13 28.6099 15.2336  22
   4  -1  14 891.270 46.5247  22
   4  -1  14 907.392 54.0675  24
   4  -1  14 964.948 49.5076  26
  -4   0  15 302.479 30.1153  27
  -4   0  15 316.611 28.7356  24
  -4   0  14 1114.20 71.4931  27
  -4   0  14 1190.88 64.1311  24
  -4   0  13 1089.99 81.3753  27
  -4   0  13 1222.67 69.6775  23
  -4   0  13 1061.80 68.2192  24
  -4   0  12 18261.6 346.500  24
  -4   0  12 17701.4 389.925  27
  -4   0  11 1257.56 81.1370  19
  -4   0  11 1174.32 93.4500  27
  -4   0  11 1092.86 76.2664  24
  -4   0  11 1213.19 74.5108  23
  -4   0  10 11538.7 254.659  19
  -4   0  10 11109.4 256.323  24
  -4   0  10 10828.8 239.457  23
  -4   0   9 520.060 50.0609  19
  -4   0   9 479.231 47.0961  24
  -4   0   9 519.621 46.0645  23
  -4   0   9 534.782 59.3991  27
  -4   0   9 565.923 60.1277  44
  -4   0   8 1691.24 285.050  35
   4   0  -8 1439.11 220.677   3
  -4   0   8 1510.61 277.752   8
   4   0  -7 11604.2 593.135   3
  -4   0   7 13446.8 755.846  35
   4   0  -7 12436.1 589.183  33
  -4   0   7 12702.8 753.888   8
   4   0  -6 1424.00 193.547   3
  -4   0   6 1265.55 217.973  35
   4   0  -6 1521.24 197.095  33
  -4   0   6 1366.41 227.035   8
   4   0  -5 3829.61 300.762   3
  -4   0   5 3857.71 350.682  35
   4   0  -5 4369.39 314.804  33
  -4   0   5 4336.30 379.346   8
   4   0  -4 1351.39 169.543   3
  -4   0   4 1497.70 204.378  35
   4   0  -4 1542.96 178.003  33
  -4   0   4 1550.05 212.727   8
   4   0  -3 15930.7 592.603   3
  -4   0   3 14771.7 604.198  35
  -4   0   3 15788.6 539.559  34
   4   0  -3 15916.1 579.263  33
  -4   0   3 16035.0 651.841   8
  -4   0   2 2878.38 205.845   6
  -4   0   2 2970.91 243.781  35
  -4   0   2 3308.21 239.505  34
   4   0  -2 2942.92 243.106  33
  -4   0   2 3227.46 268.068   8
   4   0  -2 3342.79 265.106   3
  -4   0   1 21536.4 636.800  35
   4   0  -1 21979.4 712.170  33
  -4   0   1 21458.3 625.723  32
  -4   0   1 23722.0 651.673   6
   4   0  -1 23870.0 778.225   3
  -4   0   0 365.631 82.5253   6
  -4   0   0 428.649 76.9757  35
   4   0   0 384.849 96.0067  33
  -4   0   0 314.968 72.2468  32
   4   0   0 404.853 115.499   3
   4   0   0 473.289 81.5344   2
   4   0   1 27566.5 724.927   2
  -4   0  -1 28601.9 729.272  32
  -4   0  -1 28338.6 575.896  30
  -4   0  -1 26569.3 759.465  28
  -4   0  -1 27148.6 770.302   6
   4   0   1 28502.6 1033.64   3
  -4   0  -2 8781.47 388.746  32
  -4   0  -2 8370.28 318.860  30
  -4   0  -2 8157.23 400.920  28
   4   0   2 8191.06 564.401   3
  -4   0  -2 8295.45 420.811   6
  -4   0  -3 26131.7 731.379  32
  -4   0  -3 25538.6 649.847  30
  -4   0  -3 25999.1 763.221  28
   4   0   3 27546.4 1132.70   7
  -4   0  -3 25188.9 807.362   6
  -4   0  -4 66160.4 1320.03  32
  -4   0  -4 65770.0 1231.61  30
  -4   0  -4 62819.4 1312.31  28
   4   0   4 65395.9 1628.59   4
   4   0   4 65598.4 1808.54   7
  -4   0  -4 63602.2 1455.30   6
   4   0   5 5268.70 450.241   4
  -4   0  -5 5681.70 355.944  32
  -4   0  -5 4833.37 309.008  30
  -4   0  -5 5392.28 345.364  28
   4   0   5 4950.05 406.477   9
   4   0   5 4916.52 468.270   7
  -4   0  -5 5418.55 404.092   6
  -4   0  -6 14.2471 39.0838   6
  -4   0  -6 230.972 81.6862  32
  -4   0  -6-9.21734 55.2094  30
   4   0   6 37.1628 65.5663   9
  -4   0  -6 23.6710 31.2841  28
   4   0   6 125.836 108.148   4
   4   0   6 83.6300 70.5097   7
   4   0   7 16483.2 332.593  12
   4   0   7 17214.2 370.140  36
  -4   0  -7 17864.5 708.889  32
  -4   0  -7 16404.6 669.700  30
   4   0   7 17743.7 915.677   9
   4   0   7 17257.8 917.190   4
   4   0   7 16117.9 918.731   7
  -4   0  -7 17913.3 825.053   6
   4   0   7 15666.5 323.439  22
   4   0   7 16879.7 363.969  40
   4   0   7 17214.2 373.184  21
   4   0   8 14577.2 344.393  36
   4   0   8 13872.0 287.102  26
   4   0   8 13929.7 308.489  22
   4   0   8 13916.9 336.748  40
   4   0   8 14722.5 352.515  21
   4   0   8 14315.6 315.172  12
   4   0   9 5858.37 210.166  36
   4   0   9 6028.19 178.309  26
  -4   0  -9 6385.64 184.154  45
   4   0   9 6143.22 196.435  22
   4   0   9 6067.51 214.247  40
   4   0   9 6477.83 227.118  21
   4   0   9 6280.63 197.948  12
   4   0  10 357.766 51.7863  36
   4   0  10 350.858 44.1865  26
  -4   0 -10 405.067 45.2441  45
   4   0  10 481.549 55.1391  22
   4   0  10 315.948 50.7398  40
   4   0  10 313.825 52.4658  21
   4   0  11 12361.3 260.583  26
   4   0  11 12446.3 283.191  22
   4   0  11 12526.9 312.025  40
   4   0  12 11.8023 20.0127  36
   4   0  12 27.7611 21.3507  26
  -4   0 -12 42.8528 19.3043  46
   4   0  12 40.8224 22.6873  22
   4   0  13 1743.01 73.0792  26
   4   0  13 1511.72 77.6716  24
   4   0  13 1701.43 76.2948  22
   4   0  14 10.8275 10.5948  26
   4   0  14 8.82656 11.8832  24
  -4  -1  15 1828.07 77.0149  27
  -4  -1  15 1984.00 71.6795  24
  -4  -1  14 1648.29 89.0427  27
  -4  -1  14 1743.23 79.1258  24
  -4  -1  14 1846.72 80.4662  23
  -4  -1  13 207.955 38.0003  27
  -4  -1  13 164.985 27.7792  24
  -4  -1  13 206.905 31.1268  23
  -4  -1  12 4259.25 145.822  19
  -4  -1  12 3868.14 136.902  24
  -4  -1  12 4058.27 136.112  23
  -4  -1  12 3825.66 163.381  27
  -4  -1  11 15236.0 308.251  19
  -4  -1  11 15223.8 307.953  24
  -4  -1  11 15500.2 361.515  27
  -4  -1  11 15865.8 301.472  23
  -4  -1  10 1284.60 77.1206  19
  -4  -1  10 1423.32 82.2344  24
  -4  -1  10 1386.62 75.7839  23
  -4  -1  10 1189.57 89.5426  27
  -4  -1   9 10168.8 228.401  19
  -4  -1   9 11079.6 239.245  24
  -4  -1   9 10536.2 221.126  23
  -4  -1   9 10286.3 274.628  27
  -4  -1   8 1115.37 229.533  35
   4   1  -8 801.791 155.403   3
  -4  -1   8 919.268 208.784   8
   4   1  -7 12143.1 578.317   3
  -4  -1   7 13186.8 734.362  35
  -4  -1   7 13331.7 748.767   8
   4   1  -6 10842.3 514.162   3
  -4  -1   6 10873.3 624.395  35
  -4  -1   6 11386.8 639.014   8
   4   1  -5 31146.1 877.718   3
  -4  -1   5 31450.9 1024.11  35
   4   1  -5 33427.7 857.770  33
  -4  -1   5 32100.4 1027.63   8
  -4  -1   4 12814.0 591.392  35
  -4  -1   4 13608.7 535.505  34
   4   1  -4 13330.0 504.621  33
  -4  -1   4 14545.1 633.474   8
   4   1  -4 13873.2 547.249   3
   4   1  -3 44975.1 1040.64   3
  -4  -1   3 43458.2 1020.03  34
   4   1  -3 43641.0 978.711  33
  -4  -1   3 45219.3 1109.97   8
  -4  -1   2 10023.6 456.271  35
  -4  -1   2 10965.1 475.443  34
   4   1  -2 10123.8 442.863  33
  -4  -1   2 11489.2 486.574   8
  -4  -1   2 10772.4 424.222   6
   4   1  -2 10575.0 491.999   3
  -4  -1   1 40989.7 930.727  35
  -4  -1   1 39083.9 970.918  34
   4   1  -1 37389.8 942.922  33
  -4  -1   1 41889.8 930.444   8
  -4  -1   1 39709.9 923.684   6
   4   1  -1 40101.1 1086.31   3
   4   1  -1 38374.8 901.511   2
  -4  -1   0 44.1580 49.3277  34
  -4  -1   0 70.2439 28.2562  32
   4   1   0 48.2918 48.7780   3
   4   1   0 74.2798 52.3758   2
  -4  -1  -1 3175.88 247.748  32
  -4  -1  -1 3605.11 203.008  30
  -4  -1  -1 3716.49 279.113   6
   4   1   1 3776.87 356.285   2
   4   1   1 3648.78 358.085   3
  -4  -1  -2 10647.8 465.691  32
  -4  -1  -2 10561.9 391.680  30
   4   1   2 9679.39 587.545   3
  -4  -1  -2 9739.43 484.411   6
   4   1   2 10169.8 538.800   4
  -4  -1  -3 76787.7 1472.28  32
  -4  -1  -3 75195.4 1323.51  30
   4   1   3 69729.3 1656.29   4
   4   1   3 75211.0 1885.50   7
  -4  -1  -3 68322.8 1528.96   6
  -4  -1  -4 50139.3 1167.16  32
  -4  -1  -4 50850.0 1092.89  30
  -4  -1  -4 49708.3 1302.79   6
   4   1   4 47713.0 1393.75   4
   4   1   4 48015.2 1479.14   7
  -4  -1  -5 7448.91 429.931  32
  -4  -1  -5 6841.79 389.284  30
   4   1   5 6475.76 518.531   4
   4   1   5 6798.21 550.591   7
  -4  -1  -5 6831.02 483.384   6
   4   1   6 9577.64 683.236   7
  -4  -1  -6 10308.4 549.121  34
  -4  -1  -6 10533.3 537.177  32
  -4  -1  -6 10054.3 509.308  30
   4   1   6 9391.46 663.384   9
   4   1   7 7028.56 229.218  36
   4   1   7 6813.45 218.507  16
  -4  -1  -7 7366.14 196.458  45
   4   1   7 6752.22 197.449  22
   4   1   7 7064.80 222.268  40
   4   1   7 7545.70 236.068  21
   4   1   7 6993.69 184.476  26
   4   1   7 6964.39 201.713  12
   4   1   8 1707.86 114.372  36
   4   1   8 1875.99 93.2859  26
  -4  -1  -8 2006.60 100.606  45
   4   1   8 1773.68 99.9447  22
   4   1   8 1805.79 112.924  40
   4   1   8 1930.73 120.267  21
   4   1   8 2096.34 109.333  12
   4   1   9 1641.51 109.957  36
   4   1   9 1826.31 92.2850  26
  -4  -1  -9 1836.68 96.3980  45
   4   1   9 1778.88 101.450  22
   4   1   9 1824.69 115.138  40
   4   1   9 1940.28 123.208  21
   4   1  10 1326.11 95.3328  36
   4   1  10 1410.72 79.6398  26
  -4  -1 -10 1569.36 90.2130  46
   4   1  10 1431.63 90.1674  22
   4   1  10 1405.66 99.2301  40
   4   1  11 232.114 40.8375  36
   4   1  11 215.379 32.4725  26
  -4  -1 -11 311.419 38.7147  46
   4   1  11 212.716 34.7878  22
   4   1  12 1928.67 94.9854  36
   4   1  12 2244.93 87.6359  26
  -4  -1 -12 1842.57 78.8819  46
   4   1  12 1919.27 93.7281  24
   4   1  12 2150.70 94.9216  22
  -4  -1 -13 575.270 39.7457  38
   4   1  13 627.573 39.0357  26
  -4  -2  15 412.936 38.3235  27
  -4  -2  14 737.920 60.8594  27
  -4  -2  14 823.370 53.4926  23
  -4  -2  13-0.76133 14.6668  23
  -4  -2  13-1.25264 19.1143  27
  -4  -2  13-6.45711 13.6004  24
  -4  -2  12 6452.59 184.116  19
  -4  -2  12 6566.66 214.698  27
  -4  -2  12 6327.14 171.969  24
  -4  -2  12 6602.03 176.488  23
  -4  -2  11 2866.93 119.235  19
  -4  -2  11 2901.60 140.792  27
  -4  -2  11 2936.17 116.212  24
  -4  -2  11 2967.42 112.688  23
  -4  -2  10 118.465 24.5368  19
  -4  -2  10 118.982 23.5001  23
  -4  -2   9 8222.82 233.716  27
   4   2  -8 3679.44 310.540   3
  -4  -2   8 4084.11 428.344  35
  -4  -2   8 3941.25 419.353   8
   4   2  -7 18430.5 682.197   3
  -4  -2   7 18724.9 877.900  35
  -4  -2   7 18290.2 855.523   8
  -4  -2   6 31.5792 47.0818  35
   4   2  -6 89.5634 46.8659   3
  -4  -2   6 16.2061 53.0704   8
  -4  -2   5 76755.7 1709.93  35
  -4  -2   5 80081.1 1585.77  34
  -4  -2   5 76501.2 1659.94   8
   4   2  -4 69281.8 1342.97   3
  -4  -2   4 67924.6 1507.60  35
  -4  -2   4 70218.8 1442.76  34
  -4  -2   4 68509.3 1437.82   8
  -4  -2   3 80.0760 54.1143  35
  -4  -2   3 164.720 64.3105  34
   4   2  -3 176.187 57.7457   3
   4   2  -3 81.6059 49.4592   2
  -4  -2   3 170.854 63.0092   8
  -4  -2   2 452.203 100.024  35
  -4  -2   2 514.693 106.465  34
   4   2  -2 470.093 104.870   3
   4   2  -2 544.088 108.925   2
  -4  -2   2 504.172 93.2576   8
   4   2  -2 583.802 105.966   4
  -4  -2   1 368.093 95.2694  34
   4   2  -1 109.053 63.5964   3
   4   2  -1 151.606 69.7868   2
   4   2  -1 498.909 105.442   4
  -4  -2   0 12534.5 554.040  34
   4   2   0 12046.6 550.540   4
   4   2   0 13924.1 746.248   2
   4   2   0 12188.4 618.470   3
   4   2   1 89021.0 2029.70   7
  -4  -2  -1 87181.2 1678.38  34
  -4  -2  -1 85250.7 1630.95  32
  -4  -2  -1 86832.3 1426.13  30
   4   2   1 79177.0 1692.85   4
   4   2   1 93136.9 3179.90   2
  -4  -2  -1 80861.9 1627.38   6
  -4  -2  -2 32750.4 958.539  34
  -4  -2  -2 30814.1 909.807  32
  -4  -2  -2 33143.3 812.769  30
   4   2   2 33916.2 1173.43   7
   4   2   2 32009.2 1035.30   4
  -4  -2  -3 30832.9 946.011  34
  -4  -2  -3 32623.3 948.560  32
  -4  -2  -3 33135.4 866.129  30
   4   2   3 31489.3 1081.15   4
   4   2   3 30160.2 1106.29   7
  -4  -2  -4 8934.90 505.498  34
  -4  -2  -4 9890.47 518.934  32
  -4  -2  -4 10548.8 493.826  30
   4   2   4 8883.08 594.999   4
   4   2   4 9305.54 617.916   7
  -4  -2  -5 14903.2 674.941  34
  -4  -2  -5 14412.5 653.333  32
  -4  -2  -5 15632.2 641.380  30
   4   2   5 14323.0 809.118   7
   4   2   5 14296.3 797.597   4
   4   2   6 6608.98 218.931  36
   4   2   6 6429.56 583.168   9
   4   2   6 6567.03 219.012  16
  -4  -2  -6 6754.07 187.998  45
   4   2   6 6300.73 185.356  22
   4   2   6 6429.66 202.942  40
   4   2   6 6711.89 213.782  21
  -4  -2  -6 6669.59 187.893  39
   4   2   6 6656.25 172.754  26
   4   2   7 583.188 66.3471  36
   4   2   7 574.930 49.2941  26
  -4  -2  -7 602.018 56.2754  45
   4   2   7 496.679 50.6459  22
   4   2   7 551.696 63.0568  21
   4   2   7 478.942 54.0348  40
   4   2   7 609.511 67.3224  16
   4   2   8 1902.23 120.007  36
   4   2   8 1751.97 107.435  16
   4   2   8 2046.39 96.6480  26
  -4  -2  -8 2127.94 106.250  45
   4   2   8 1910.36 103.133  22
   4   2   8 1934.11 115.133  40
   4   2   8 2147.73 126.176  21
   4   2   9 2597.32 139.647  36
  -4  -2  -9 3098.99 130.791  46
  -4  -2  -9 2722.50 117.499  45
   4   2   9 2749.03 126.603  22
   4   2   9 2851.34 139.428  40
   4   2   9 2939.12 115.227  26
   4   2  10 3302.52 149.332  36
   4   2  10 3463.08 138.346  22
   4   2  10 3500.39 121.758  26
  -4  -2 -10 3635.55 135.782  46
   4   2  11 838.245 62.8788  22
   4   2  11 764.727 65.3331  36
  -4  -2 -11 688.367 53.1830  46
   4   2  11 805.292 53.0914  26
  -4  -2 -12 362.735 36.4976  38
   4   2  12 386.334 33.4356  26
  -4  -2 -12 265.544 27.3730  46
   4   2  12 215.157 29.0988  24
  -4  -3  15 1992.40 83.7688  27
  -4  -3  15 2525.37 83.8205  23
  -4  -3  14 47.6795 21.2480  19
  -4  -3  14 67.3956 22.0579  27
  -4  -3  14 51.9606 18.1627  23
  -4  -3  13 25.1062 19.4491  27
  -4  -3  13 59.9384 21.6976  19
  -4  -3  13 43.9889 18.8779  23
  -4  -3  12 11241.4 285.561  27
  -4  -3  12 11746.6 239.999  23
  -4  -3  11 10059.8 236.805  19
  -4  -3  11 9875.51 260.287  14
  -4  -3  10 3186.47 121.774  19
  -4  -3  10 3505.74 149.529  27
  -4  -3  10 3391.16 144.426  14
   4   3  -9 2.60413 33.6689   2
  -4  -3   9 21.3152 16.3456  27
  -4  -3   9 39.0776 20.2808  14
  -4  -3   8 101.088 75.4490  35
   4   3  -8 93.7730 52.7428   2
   4   3  -7 21637.1 827.851   2
  -4  -3   7 19916.3 907.197  35
  -4  -3   7 21634.4 908.751   8
  -4  -3   6 510.507 134.033  35
  -4  -3   6 567.783 127.970  34
   4   3  -6 559.343 129.702   2
  -4  -3   6 504.780 128.566   8
  -4  -3   5 1613.69 227.620  35
  -4  -3   5 1624.84 213.533  34
  -4  -3   5 1674.25 206.897   8
   4   3  -5 1530.31 202.608   2
  -4  -3   4 4185.34 348.521  35
  -4  -3   4 4634.66 353.137  34
   4   3  -4 4602.94 342.754   2
  -4  -3   3 1511.96 201.116  34
   4   3  -3 1468.06 199.764   2
  -4  -3   2 13122.0 601.244  34
   4   3  -2 12217.7 510.422   4
   4   3  -2 13163.3 674.036   2
  -4  -3   1 2188.22 241.861  34
   4   3  -1 2269.59 230.419  31
   4   3  -1 2392.22 236.448   4
   4   3  -1 2389.28 344.972   2
  -4  -3   0 1005.33 165.508  34
   4   3   0 1248.75 419.667   2
   4   3   0 1479.64 205.947  31
   4   3   0 1171.97 194.914   7
   4   3   0 1025.43 166.153   4
  -4  -3  -1 39454.3 1112.71  34
  -4  -3  -1 43024.7 1002.53  30
   4   3   1 39288.0 1146.08   4
   4   3   1 39428.2 2900.56   2
   4   3   1 38035.3 1162.35   7
   4   3   2 8799.76 919.401   2
  -4  -3  -2 9681.78 530.633  34
  -4  -3  -2 8648.47 499.472  32
  -4  -3  -2 10450.1 486.327  30
   4   3   2 9380.89 564.291   4
   4   3   2 9433.37 563.137   7
  -4  -3  -3 10039.4 551.926  34
  -4  -3  -3 10017.4 546.709  32
  -4  -3  -3 10494.7 510.959  30
   4   3   3 10244.1 623.995   4
   4   3   3 9973.40 607.314   7
   4   3   4 188.868 100.709   7
  -4  -3  -4 98.5892 45.4332  34
  -4  -3  -4 105.680 61.1226  32
  -4  -3  -4 153.628 74.9531  30
   4   3   4 93.2523 66.8906   4
   4   3   5 2256.02 122.130  36
  -4  -3  -5 2229.13 258.113  30
   4   3   5 2216.32 127.978  16
  -4  -3  -5 2316.45 106.962  45
   4   3   5 2463.86 335.006   7
   4   3   5 2183.25 103.041  22
   4   3   5 2066.54 105.480  40
   4   3   5 2236.56 114.734  21
   4   3   5 2224.20 122.497  49
  -4  -3  -5 2379.03 109.930  39
   4   3   6 2044.93 122.467  36
   4   3   6 1904.48 111.215  49
  -4  -3  -6 2159.86 107.769  46
   4   3   6 2224.38 126.696  16
  -4  -3  -6 2152.05 106.833  45
   4   3   6 2094.58 104.718  22
   4   3   6 1908.20 105.706  40
   4   3   6 2136.02 117.078  21
  -4  -3  -6 2000.83 102.557  39
   4   3   6 2319.56 97.9228  26
   4   3   7 379.840 59.9038  36
   4   3   7 426.419 43.6214  26
   4   3   7 440.751 56.5593  49
   4   3   7 385.290 54.2350  16
  -4  -3  -7 438.721 50.3483  46
  -4  -3  -7 468.792 50.7521  45
   4   3   7 386.855 45.9065  22
   4   3   7 386.685 49.6726  40
   4   3   8 114.696 33.8848  36
   4   3   8 138.420 32.6575  49
   4   3   8 114.381 28.7989  16
   4   3   8 180.802 30.0880  26
  -4  -3  -8 237.919 37.5147  46
  -4  -3  -8 161.498 31.4661  45
   4   3   8 174.404 33.9107  22
   4   3   8 189.238 37.9314  40
   4   3   9 37.5432 24.3304  36
   4   3   9 35.4010 18.0696  16
   4   3   9 72.9035 21.6012  26
  -4  -3  -9 36.0004 19.3626  46
   4   3   9 38.5558 19.5938  22
  -4  -3  -9 14.8221 18.3547  45
  -4  -3 -10 1229.04 75.6085  38
   4   3  10 1130.77 82.3307  36
   4   3  10 1180.13 64.3852  26
  -4  -3 -10 1036.89 67.2540  46
   4   3  10 1034.52 67.1829  24
   4   3  10 1218.38 76.8932  22
  -4  -3 -11 342.328 37.1038  38
   4   3  11 304.822 30.0702  26
   4   3  11 239.888 29.4152  24
  -4  -3 -11 296.460 31.7655  46
  -4  -3 -12 659.745 40.9906  38
   4   3  12 819.022 39.0423  26
  -4  -4  15 840.150 53.6668  19
  -4  -4  15 715.152 49.1822  27
  -4  -4  14 1245.38 71.6318  19
  -4  -4  14 1065.72 70.3929  27
  -4  -4  13 90.3293 22.9522  19
  -4  -4  13 23.3431 16.5563  27
  -4  -4  13 46.5040 27.1100  14
  -4  -4  12 10051.1 239.385  19
  -4  -4  12 10275.8 267.161  14
  -4  -4  11 3971.40 139.870  19
  -4  -4  11 4333.84 164.255  27
  -4  -4  11 4198.99 166.906  14
  -4  -4  10 39.5966 22.3805  27
  -4  -4  10-9.76960 31.9319  14
  -4  -4   9 1277.47 84.5487  27
  -4  -4   9 1279.36 88.2450  14
   4   4  -8 14831.2 732.402  31
   4   4  -8 17424.4 807.772   2
   4   4  -7 1793.84 255.668   2
  -4  -4   6 129.773 72.7471  34
   4   4  -6 230.959 97.9518   2
  -4  -4   5 2165.78 265.219  34
   4   4  -5 2052.35 251.433  31
   4   4  -5 2125.98 274.981   2
  -4  -4   4 1269.20 204.585  34
   4   4  -4 1251.44 196.497  31
   4   4  -4 1676.68 254.079   2
  -4  -4   3 8187.26 510.873  34
   4   4  -3 7994.21 504.543  31
   4   4  -3 8088.32 619.552   2
  -4  -4   2 7822.18 494.539  34
   4   4  -2 7652.78 517.522  31
   4   4  -2 7572.44 746.100   2
  -4  -4   1 1662.98 231.461  34
   4   4  -1 1577.06 526.066   2
   4   4  -1 1629.07 265.931  31
   4   4  -1 1814.30 216.779   4
  -4  -4   0 16964.8 740.585  34
  -4  -4   0 16346.9 637.745  30
   4   4   0 15595.8 697.057   4
   4   4   0 15157.5 1910.69   2
   4   4   1 707.661 359.273   2
  -4  -4  -1 928.094 170.026  34
  -4  -4  -1 952.259 154.143  30
   4   4   1 1001.16 187.493   4
   4   4   2 901.851 263.260   2
  -4  -4  -2 720.634 155.071  34
  -4  -4  -2 820.537 154.313  30
   4   4   2 973.508 190.535   4
  -4  -4  -3 12526.8 663.043  34
  -4  -4  -3 12969.7 632.868  30
   4   4   3 12501.7 727.207   4
   4   4   4 1894.82 110.953  36
   4   4   4 1867.41 120.436  49
  -4  -4  -4 1962.14 100.081  46
  -4  -4  -4 1889.67 99.3640  45
   4   4   4 1856.56 96.0545  22
   4   4   4 1839.09 120.435  16
   4   4   4 1769.84 99.4320  21
  -4  -4  -4 1862.85 99.8694  39
   4   4   5 5505.09 200.660  36
  -4  -4  -5 5917.07 183.807  46
  -4  -4  -5 5616.22 182.401  45
   4   4   5 5791.82 178.825  22
   4   4   5 5242.11 195.842  49
   4   4   5 5491.61 206.941  16
  -4  -4  -5 5641.89 182.283  39
  -4  -4  -6 1.17360 17.3631  45
   4   4   6 35.6629 24.9269  36
   4   4   6 57.6451 30.0771  49
   4   4   6 12.8570 26.1846  16
  -4  -4  -6 23.5124 20.9319  46
   4   4   6 25.7901 21.5738  22
   4   4   6-1.54284 15.1206  26
   4   4   7 185.646 39.2820  36
   4   4   7 169.271 37.3648  49
   4   4   7 201.029 29.5712  26
  -4  -4  -7 191.408 33.1765  46
   4   4   7 139.558 33.4033  16
  -4  -4  -7 210.036 34.9368  45
   4   4   7 183.510 33.3807  22
  -4  -4  -8 359.687 44.1487  38
   4   4   8 293.363 43.6399  36
   4   4   8 250.313 38.3777  49
   4   4   8 244.599 41.4637  16
  -4  -4  -8 301.801 41.1938  46
  -4  -4  -8 313.938 39.4697  45
   4   4   8 348.344 37.0817  26
   4   4   8 305.847 42.5404  22
  -4  -4  -9 853.626 63.5370  38
   4   4   9 783.303 70.7633  36
   4   4   9 827.893 54.1014  26
   4   4   9 731.282 61.8095  16
   4   4   9 703.661 59.9453  49
  -4  -4  -9 808.257 61.2801  46
   4   4   9 667.445 51.0150  24
  -4  -4 -10 39.2355 16.1766  38
  -4  -4 -10 37.8384 15.2166  46
   4   4  10 34.6523 13.5829  24
   4   4  10 60.5693 21.1965  16
   4   4  10 70.0343 16.9898  26
  -4  -4 -11 447.281 35.6397  38
  -4  -5  15 590.395 44.4730  19
  -4  -5  14 446.793 43.3678  19
  -4  -5  14 445.355 44.9643  27
  -4  -5  14 404.786 46.9639  14
  -4  -5  13 2241.54 101.464  19
  -4  -5  13 2406.51 112.176  27
  -4  -5  13 2276.59 115.724  14
  -4  -5  12 2770.28 116.180  19
  -4  -5  12 3088.39 134.142  27
  -4  -5  12 3010.76 139.482  14
  -4  -5  11 1840.85 94.0562  19
  -4  -5  11 1957.86 105.302  27
  -4  -5  11 1940.60 113.051  14
  -4  -5  10 1621.39 94.6522  27
  -4  -5  10 1655.71 103.197  14
  -4  -5   9 3859.92 148.483  27
  -4  -5   9 4158.49 164.411  14
  -4  -5   8 1223.06 86.8378  14
  -4  -5   8 1131.81 75.5543  27
  -4  -5   7 1260.40 225.102  34
   4   5  -7 1638.60 286.630  31
   4   5  -7 1378.48 274.343   2
   4   5  -6 28369.4 1252.67   2
  -4  -5   6 27883.5 1073.43  34
   4   5  -6 26749.6 1145.14  31
  -4  -5   5 7.34929 52.8116  34
   4   5  -5 84.8799 80.7103  31
   4   5  -5-92.0231 134.122   2
  -4  -5   4 10309.0 623.203  34
   4   5  -4 10359.2 705.792  31
   4   5  -4 9681.73 843.591   2
  -4  -5   3 5731.58 460.434  34
   4   5  -3 5468.28 540.451  31
  -4  -5   2 1739.92 246.058  34
   4   5  -2 1595.98 720.015   2
   4   5  -2 1863.20 363.292  31
  -4  -5   1 80.4096 64.6800  34
   4   5  -1 191.111 511.063   2
   4   5  -1-78.1979 191.395  31
   4   5  -1 50.4861 62.0351   4
   4   5   0 171.724 331.268   2
  -4  -5   0-3.14238 57.6861  34
   4   5   0-2.10842 49.5819   4
   4   5   1 2130.61 445.131   2
  -4  -5  -1 1930.58 267.460  34
  -4  -5  -1 1830.02 240.573  30
   4   5   1 2133.70 286.240   4
  -4  -5  -2 26661.4 433.395  38
  -4  -5  -2 23412.7 967.401  34
  -4  -5  -2 24584.1 942.326  30
  -4  -5  -2 25540.8 431.581  46
   4   5   2 23935.0 1028.41   4
   4   5   2 28545.2 587.244  49
  -4  -5  -2 23935.9 433.607  45
   4   5   2 25616.8 488.836  16
  -4  -5  -2 24746.6 442.293  39
   4   5   3 2486.71 111.388  22
  -4  -5  -3 2660.00 116.106  38
   4   5   3 2404.93 120.320  36
   4   5   3 2418.81 138.207  16
  -4  -5  -3 2386.68 116.255  45
   4   5   3 2396.01 142.199  49
  -4  -5  -3 2516.96 115.309  46
  -4  -5  -3 2193.97 112.748  39
  -4  -5  -4 16932.6 335.714  38
   4   5   4 16040.7 357.591  36
  -4  -5  -4 16119.6 341.972  45
   4   5   4 15512.4 372.366  49
   4   5   4 15962.5 380.044  16
  -4  -5  -4 16282.5 337.347  46
   4   5   4 16974.0 335.324  22
  -4  -5  -4 16404.4 342.797  39
  -4  -5  -5 510.822 54.2131  38
   4   5   5 526.003 63.6179  36
   4   5   5 579.720 58.0972  22
  -4  -5  -5 572.399 59.7391  45
   4   5   5 423.973 58.8479  49
  -4  -5  -5 634.073 62.7710  46
  -4  -5  -5 518.356 55.1945  39
   4   5   5 563.379 67.4990  16
   4   5   6 204.970 40.9830  49
  -4  -5  -6 279.170 40.5405  38
   4   5   6 349.489 46.4802  22
  -4  -5  -6 325.840 44.7937  45
   4   5   6 345.653 50.9207  36
  -4  -5  -6 371.708 48.0684  46
   4   5   6 305.704 50.6636  16
   4   5   6 321.709 37.1005  26
  -4  -5  -7 2710.01 118.546  38
   4   5   7 2559.25 131.630  36
   4   5   7 2509.77 129.106  16
   4   5   7 2199.65 119.982  49
  -4  -5  -7 2679.77 122.057  46
   4   5   7 2924.74 104.553  26
  -4  -5  -7 2513.82 116.180  45
  -4  -5  -8 144.597 26.6998  38
   4   5   8 131.561 31.9205  36
   4   5   8 105.883 26.3430  49
   4   5   8 105.080 27.6270  16
  -4  -5  -8 114.808 26.0355  46
  -4  -5  -8 115.959 24.2614  45
   4   5   8 208.802 28.3681  26
  -4  -5  -9 290.029 34.8140  38
   4   5   9 269.737 34.6095  49
   4   5   9 241.734 34.2154  16
  -4  -5  -9 245.670 31.7800  46
  -4  -5 -10 21.6144 11.8818  38
  -4  -5 -10 19.4864 9.67098  46
   4   5  10 5.88869 11.0679  16
  -4  -6  15 21.3215 15.2568  19
  -4  -6  15 18.3144 18.4345  14
  -4  -6  14 752.381 53.4017  19
  -4  -6  14 827.367 59.1456  27
  -4  -6  14 730.133 60.1704  14
  -4  -6  13 96.8038 34.9819  14
  -4  -6  13 60.0662 26.6630  27
  -4  -6  13 8.04027 16.0810  19
  -4  -6  12 382.763 43.6474  19
  -4  -6  12 429.828 51.0832  27
  -4  -6  12 416.649 53.1802  14
  -4  -6  11 6227.63 208.744  14
  -4  -6  11 6444.11 196.950  27
  -4  -6  10 11748.0 276.588  27
  -4  -6  10 11432.6 293.835  14
  -4  -6   9 3239.77 136.236  27
  -4  -6   9 2988.37 141.248  14
  -4  -6   8 1106.71 78.8428  27
  -4  -6   8 1066.45 82.1951  14
  -4  -6   7 28781.6 1180.40  34
  -4  -6   7 27433.6 469.832  17
  -4  -6   7 30169.9 490.473  27
  -4  -6   7 28455.2 492.752  14
  -4  -6   6 679.126 167.542  34
   4   6  -6 699.969 257.082   2
   4   6  -6 808.455 236.056  31
  -4  -6   6 1037.03 75.7193  27
  -4  -6   5 1256.65 240.822  34
   4   6  -5 628.831 316.668   2
   4   6  -5 1140.69 314.243  31
  -4  -6   4 677.812 171.174  34
   4   6  -4 626.216 361.873   2
   4   6  -4 653.995 218.286  31
  -4  -6   3 16761.8 845.975  34
   4   6  -3 14014.7 1188.50  31
  -4  -6   2 475.784 144.801  34
   4   6  -2 1094.57 563.140   2
   4   6  -2 545.066 226.405  31
   4   6  -1 3644.42 755.829   2
  -4  -6   1 4036.42 409.114  34
  -4  -6   1 4637.01 164.424  15
  -4  -6   1 4017.02 151.140  39
  -4  -6   0 903.053 66.2367  38
   4   6   0 1046.41 317.733   2
  -4  -6   0 844.407 65.7448  46
   4   6   0 1046.92 133.610  49
  -4  -6   0 903.719 70.8871  15
   4   6   0 810.687 175.070   4
  -4  -6   0 891.577 69.3231  45
   4   6   0 895.994 75.3934  16
  -4  -6   0 885.642 70.6808  39
  -4  -6  -1 31871.5 507.629  38
  -4  -6  -1 29492.9 510.912  45
   4   6   1 30837.7 547.231  16
  -4  -6  -1 29991.9 507.445  15
  -4  -6  -1 31310.6 507.586  46
  -4  -6  -1 30400.3 518.344  39
  -4  -6  -2 1439.60 88.5040  38
   4   6   2 1252.95 84.1477  36
   4   6   2 1377.33 111.627  49
   4   6   2 1397.56 100.202  16
  -4  -6  -2 1350.63 86.1242  46
  -4  -6  -2 1419.70 91.1984  45
   4   6   2 1399.50 98.3849  44
  -4  -6  -2 1386.92 91.9574  39
  -4  -6  -3 50605.8 718.748  38
   4   6   3 48109.4 763.857  16
   4   6   3 49645.7 784.546  49
  -4  -6  -3 49554.4 719.137  46
  -4  -6  -3 49231.0 731.567  45
  -4  -6  -3 49878.0 734.218  39
  -4  -6  -4 74.9362 25.1825  38
   4   6   4 29.8128 21.2495  36
  -4  -6  -4 58.4023 27.5268  46
  -4  -6  -4 21.1082 24.8630  45
   4   6   4 20.3548 26.3851  16
   4   6   4 50.3273 35.0283  49
  -4  -6  -4 53.9417 28.1639  39
  -4  -6  -5 5275.29 173.966  38
   4   6   5 5410.31 189.252  36
   4   6   5 5237.21 196.709  16
  -4  -6  -5 5289.92 181.213  45
  -4  -6  -5 5600.34 184.434  46
   4   6   5 5250.44 193.566  49
  -4  -6  -5 5003.13 168.011  39
  -4  -6  -6 43.4762 22.9544  38
   4   6   6 7.38942 21.5037  36
  -4  -6  -6 51.2679 24.3695  46
   4   6   6 32.4631 25.2407  16
   4   6   6-12.2822 25.5872  49
  -4  -6  -6 32.0937 19.5918  45
  -4  -6  -7 756.585 59.5789  38
   4   6   7 827.180 69.3284  36
  -4  -6  -7 801.602 63.5268  46
   4   6   7 755.345 65.8025  16
   4   6   7 755.393 66.0985  49
  -4  -6  -7 733.149 57.2969  45
  -4  -6  -8 85.1574 21.1059  38
   4   6   8 102.972 25.6249  49
   4   6   8 106.642 25.4229  16
  -4  -6  -8 97.0766 22.0247  46
  -4  -6  -9 228.242 26.9109  38
   4   6   9 248.569 28.4941  16
   4   6   9 238.386 28.0559  49
  -4  -6  -9 251.220 27.4689  46
  -4  -7  15 2886.93 89.8867  19
  -4  -7  15 2836.77 101.964  14
  -4  -7  14 338.138 35.7451  19
  -4  -7  14 309.792 43.1823  14
  -4  -7  13 1722.84 83.4271  19
  -4  -7  13 2091.33 107.949  14
  -4  -7  12 9995.26 242.509  27
  -4  -7  12 9219.73 253.789  14
  -4  -7  11 3773.55 146.503  27
  -4  -7  11 3613.94 154.871  14
  -4  -7  10 192.032 41.9802  27
  -4  -7  10 60.7582 30.5185  14
  -4  -7   9 7137.67 209.061  27
  -4  -7   9 6248.27 208.380  14
  -4  -7   8 702.163 63.2639  17
  -4  -7   8 724.813 67.3687  14
  -4  -7   7 33996.7 555.765  17
  -4  -7   7 35174.7 548.685  15
  -4  -7   7 34706.9 565.791  14
  -4  -7   6 7410.83 206.847  11
  -4  -7   6 7309.58 212.631  17
  -4  -7   6 7335.87 210.054  15
  -4  -7   6 6986.09 207.460  14
  -4  -7   5 49.3653 17.3618  17
  -4  -7   5 67.9184 26.0758  15
  -4  -7   5 108.645 28.3581  14
  -4  -7   4 33.6311 20.4833  17
  -4  -7   4 50.4510 23.0210  15
  -4  -7   4 82.3950 24.2473  45
  -4  -7   3 22575.1 419.650  45
  -4  -7   3 22646.5 424.572  39
  -4  -7   2 3194.29 140.759  15
  -4  -7   2 3071.71 133.730  45
   4   7  -2 3342.88 218.587  49
  -4  -7   2 3050.55 135.520  39
  -4  -7   1 29697.2 489.660  38
  -4  -7   1 29126.1 499.672  17
   4   7  -1 27440.8 494.357  16
  -4  -7   1 29484.4 512.070  15
  -4  -7   1 28688.0 501.128  45
  -4  -7   1 29053.2 487.832  46
  -4  -7   1 28926.4 503.961  39
  -4  -7   0 151.778 30.7022  38
  -4  -7   0 152.045 27.9313  17
  -4  -7   0 154.492 31.5506  46
   4   7   0 237.384 42.4842  16
  -4  -7   0 189.442 35.8759  45
  -4  -7   0 161.812 33.4304  39
   4   7   0 167.780 52.5330  49
  -4  -7  -1 3407.93 140.532  38
   4   7   1 3859.39 180.161  49
  -4  -7  -1 3334.28 136.964  17
   4   7   1 3374.89 151.032  16
  -4  -7  -1 3447.53 142.247  46
  -4  -7  -1 3512.66 149.133  45
   4   7   1 3973.26 170.535  44
  -4  -7  -1 3547.57 149.144  39
  -4  -7  -2 7449.63 215.839  38
  -4  -7  -2 7592.37 220.276  46
   4   7   2 7512.30 234.748  16
  -4  -7  -2 7579.42 227.361  45
   4   7   2 7774.61 224.671  44
  -4  -7  -2 7756.87 228.451  39
   4   7   2 7676.95 251.403  49
  -4  -7  -3 5594.87 183.355  38
   4   7   3 5840.26 184.400  36
   4   7   3 5727.57 201.040  16
   4   7   3 5792.81 208.310  49
  -4  -7  -3 5829.83 189.463  46
  -4  -7  -3 5769.93 193.607  45
   4   7   3 5961.65 199.699  42
  -4  -7  -3 5801.65 190.514  39
  -4  -7  -4 5454.47 174.584  38
   4   7   4 5268.10 174.983  36
   4   7   4 5469.36 193.774  16
   4   7   4 5294.66 193.466  49
  -4  -7  -4 5500.56 181.009  46
  -4  -7  -4 5322.62 181.251  45
   4   7   4 5350.83 179.350  42
  -4  -7  -5 532.468 52.3707  38
   4   7   5 544.213 55.7538  36
   4   7   5 523.810 59.8170  49
  -4  -7  -5 536.056 55.1404  46
   4   7   5 525.795 61.1011  16
  -4  -7  -5 516.762 53.4576  45
   4   7   5 469.191 46.9201  42
  -4  -7  -6-11.3892 16.2242  38
   4   7   6 6.98069 22.9651  49
   4   7   6-30.8857 21.6039  16
  -4  -7  -6 7.32388 14.7663  46
  -4  -7  -6 1.72730 13.7247  45
  -4  -7  -7 3.52949 11.9790  38
  -4  -7  -7 17.5030 12.5203  18
   4   7   7-14.9422 20.9805  49
   4   7   7 12.6151 16.6585  16
  -4  -7  -7 25.5134 15.1009  46
  -4  -7  -7 14.2592 10.7493  45
  -4  -7  -8 230.220 26.3234  38
  -4  -7  -8 223.702 24.7195  18
   4   7   8 218.199 26.9298  49
  -4  -7  -8 257.963 27.9040  46
   4   7   8 234.477 27.8642  16
  -4  -8  15 3031.90 101.035  14
  -4  -8  14 294.830 38.7692  14
  -4  -8  13 3159.68 127.488  14
  -4  -8  12 4086.25 155.128  14
  -4  -8  11 567.795 60.3089  14
  -4  -8  10 2506.79 125.013  14
  -4  -8   9 1196.26 86.6958  14
  -4  -8   9 1347.15 86.4651  17
  -4  -8   8 25778.3 462.425  17
  -4  -8   8 26042.4 466.490  14
  -4  -8   7 111.269 31.6690  11
  -4  -8   7 73.4012 33.0095  17
  -4  -8   7 77.5358 26.6326  14
  -4  -8   6 11918.3 281.491  11
  -4  -8   6 11612.4 288.956  17
  -4  -8   6 11555.2 270.923  14
  -4  -8   5 12968.5 302.068  11
  -4  -8   5 13214.0 309.016  17
  -4  -8   4 1575.11 96.3933  11
  -4  -8   4 1622.74 99.3189  17
   4   8  -4 1565.81 138.333  49
  -4  -8   4 1640.34 99.4644  45
  -4  -8   3 5465.17 186.900  17
   4   8  -3 5707.00 249.098  49
  -4  -8   3 5638.44 190.565  45
  -4  -8   2 5070.34 179.375  17
  -4  -8   2 4788.72 169.452  46
  -4  -8   2 5084.48 181.355  45
   4   8  -2 5455.09 225.239  49
  -4  -8   1 13606.1 305.290  38
   4   8  -1 12326.2 290.450  16
  -4  -8   1 13451.1 307.727  17
   4   8  -1 14298.7 355.736  49
  -4  -8   1 13173.1 302.609  46
  -4  -8   1 12931.8 311.247  45
  -4  -8   0 12330.6 289.984  38
  -4  -8   0 12254.0 295.736  11
  -4  -8   0 12036.0 283.874  17
   4   8   0 11412.9 281.724  16
  -4  -8   0 11737.9 296.513  45
  -4  -8   0 11818.8 285.808  46
   4   8   0 12761.4 328.475  49
  -4  -8  -1 1190.31 82.5707  38
  -4  -8  -1 1171.85 84.2372  11
   4   8   1 1076.33 80.2129  16
   4   8   1 1152.16 92.5284  49
  -4  -8  -1 1112.45 80.2199  46
  -4  -8  -1 1167.02 85.4233  45
   4   8   1 1159.98 85.7516  44
   4   8   1 1217.41 90.5800  42
  -4  -8  -2 1787.57 99.2978  38
  -4  -8  -2 1691.95 97.2837  11
   4   8   2 1698.55 100.150  16
  -4  -8  -2 1706.58 98.0784  46
   4   8   2 1573.43 104.248  49
   4   8   2 1625.70 94.9699  44
   4   8   2 1751.47 104.967  42
  -4  -8  -2 1621.98 98.6460  45
  -4  -8  -3 871.534 69.5045  38
  -4  -8  -3 890.826 66.2791  11
   4   8   3 825.990 70.4641  16
   4   8   3 837.228 74.0259  49
  -4  -8  -3 885.690 69.3308  46
  -4  -8  -3 930.295 73.8810  45
   4   8   3 772.526 62.0358  44
   4   8   3 839.317 68.5569  42
  -4  -8  -4 679.833 58.1643  38
   4   8   4 692.575 61.5403  16
   4   8   4 693.907 63.9612  49
  -4  -8  -4 714.892 59.8548  46
  -4  -8  -4 687.866 60.2380  45
   4   8   4 692.054 57.2695  42
  -4  -8  -5 30.7730 17.3228  38
  -4  -8  -5 20.5270 18.0806  45
  -4  -8  -5 28.5248 15.1071  18
   4   8   5-10.2862 24.3586  49
   4   8   5 12.9026 17.9093  16
  -4  -8  -5 27.9334 19.7336  46
  -4  -8  -6 113.681 22.2721  38
  -4  -8  -6 148.459 21.0604  18
   4   8   6 117.970 26.5509  49
   4   8   6 103.339 22.2218  16
  -4  -8  -6 158.035 25.5897  46
  -4  -8  -6 147.899 22.6253  45
  -4  -8  -7 138.461 19.6408  38
   4   8   7 143.238 22.0338  49
   4   8   7 143.460 21.9946  16
  -4  -8  -7 149.403 20.3543  46
  -4  -9  15 509.946 38.2421  14
  -4  -9  14 293.084 35.5180  14
  -4  -9  13 3516.36 125.998  14
  -4  -9  12 160.266 33.0189  14
  -4  -9  11 235.250 44.7406  14
  -4  -9  10 43.5623 19.7770  17
  -4  -9  10 51.0503 26.5662  14
  -4  -9   9 3941.30 148.714  17
  -4  -9   9 3900.21 148.401  14
  -4  -9   8 6987.67 210.045  17
  -4  -9   8 6789.21 199.007  14
  -4  -9   7 1359.81 88.2659  11
  -4  -9   7 1353.34 91.1377  17
  -4  -9   6 7701.02 223.051  11
  -4  -9   6 7954.19 227.511  17
  -4  -9   5 1243.72 86.1383  11
  -4  -9   5 1153.43 85.0529  17
  -4  -9   5 1084.93 79.5165  45
   4   9  -5 1162.81 78.3647  42
   4   9  -4 8725.58 257.621  49
  -4  -9   4 8429.53 237.358  11
  -4  -9   4 8566.55 240.294  17
  -4  -9   4 8464.09 238.172  45
   4   9  -4 8675.46 234.759  42
  -4  -9   3 659.383 64.5646  11
  -4  -9   3 623.987 63.8921  17
   4   9  -3 570.685 63.0677  49
  -4  -9   3 702.703 66.0836  45
   4   9  -3 734.420 69.9789  42
  -4  -9   2 3580.29 148.224  11
  -4  -9   2 3766.94 150.850  17
   4   9  -2 3496.83 152.307  49
  -4  -9   2 3498.28 141.843  46
  -4  -9   2 3608.62 150.772  45
   4   9  -2 4082.29 182.326  44
   4   9  -2 3757.36 154.215  42
  -4  -9   2 3669.15 145.620  38
   4   9  -1 63.8834 25.4493  49
  -4  -9   1 58.4398 21.2807  38
  -4  -9   1 120.337 28.9762  11
  -4  -9   1 63.2969 23.0614  17
  -4  -9   1 88.0749 24.3359  46
  -4  -9   1 101.121 26.9582  45
   4   9  -1 74.6272 33.4187  44
   4   9  -1 72.3183 26.1639  42
  -4  -9   0 1441.59 90.8292  11
  -4  -9   0 1361.97 81.1985  17
   4   9   0 1322.25 81.4690  16
   4   9   0 1438.09 93.7477  49
  -4  -9   0 1318.26 85.1487  46
  -4  -9   0 1378.15 89.4109  45
   4   9   0 1385.14 90.5742  44
   4   9   0 1500.79 93.9011  42
  -4  -9   0 1438.39 89.3381  38
  -4  -9  -1 132.608 30.4710  38
  -4  -9  -1 129.791 30.2556  11
   4   9   1 132.169 35.2098  49
   4   9   1 143.819 30.6548  16
  -4  -9  -1 99.9356 24.2714  46
  -4  -9  -1 157.909 30.7810  45
   4   9   1 125.561 28.9536  44
   4   9   1 157.720 34.8387  42
  -4  -9  -2 40.7941 21.6308  38
  -4  -9  -2 35.4839 16.9151  11
   4   9   2 17.2237 21.4989  49
  -4  -9  -2-0.87953 18.0433  46
  -4  -9  -2 38.3128 22.3469  45
   4   9   2 25.0747 17.2247  44
   4   9   2 51.9468 22.5047  42
   4   9   2 73.6690 24.8104  16
   4   9   3 1761.62 87.3875  16
   4   9   3 1689.12 91.4611  49
  -4  -9  -3 1768.33 88.7080  46
  -4  -9  -3 1756.47 90.9779  45
   4   9   3 1709.10 81.9761  44
   4   9   3 1710.70 84.9672  42
  -4  -9  -3 1680.73 84.8951  38
  -4  -9  -4 20.0302 16.5898  38
   4   9   4 23.5319 19.9360  49
   4   9   4 11.5771 14.2449  16
  -4  -9  -4 17.0482 14.9958  46
  -4  -9  -4 21.3451 16.4335  45
   4   9   4 36.3287 16.3880  42
  -4  -9  -5 49.3136 15.2456  38
   4   9   5 78.9205 20.9758  49
  -4  -9  -5 49.5823 17.4322  46
  -4  -9  -5 78.8396 17.4969  45
   4   9   5 52.5604 16.2424  16
  -4 -10  14 1320.29 59.8452  14
  -4 -10  13 160.715 26.3480  14
  -4 -10  12-0.52316 16.3832  14
  -4 -10  11 416.611 43.7246  14
  -4 -10  10 27.9448 21.1483  17
  -4 -10  10 23.4986 19.1893  14
  -4 -10   9 94.4767 27.9957  17
  -4 -10   9 125.832 28.3874  14
  -4 -10   8 6088.43 177.037  11
  -4 -10   8 6222.42 187.576  17
  -4 -10   7 3285.65 131.747  11
  -4 -10   7 3189.14 134.481  17
  -4 -10   6 2880.31 125.828  11
  -4 -10   6 2801.25 128.464  17
  -4 -10   5 621.484 60.4241  11
  -4 -10   5 621.826 62.7574  17
  -4 -10   5 595.340 57.1496  45
   4  10  -5 578.896 52.3729  42
  -4 -10   4 61.3950 29.6494  11
  -4 -10   4 106.929 30.9584  17
  -4 -10   4 66.1378 25.9256  45
   4  10  -4 146.774 41.3892  44
   4  10  -4 53.2716 21.3678  42
  -4 -10   3 688.734 63.0129  11
  -4 -10   3 661.423 59.5050  17
  -4 -10   3 676.936 61.6765  45
   4  10  -3 780.262 74.9940  44
   4  10  -3 612.251 53.9176  49
   4  10  -3 700.145 60.6423  42
   4  10  -2 969.352 68.3333  49
  -4 -10   2 1019.52 74.0890  11
  -4 -10   2 1076.12 73.1621  17
  -4 -10   2 1007.83 71.0258  46
  -4 -10   2 1019.53 74.8139  45
   4  10  -2 1110.97 80.3839  44
   4  10  -2 1040.59 73.5628  42
  -4 -10   2 959.971 68.8068  38
  -4 -10   1 3798.19 140.363  11
  -4 -10   1 3548.74 128.139  17
   4  10  -1 3522.07 130.787  49
  -4 -10   1 3601.82 134.438  46
  -4 -10   1 3663.09 141.574  45
   4  10  -1 3615.47 138.412  44
   4  10  -1 3773.31 140.462  42
  -4 -10   1 3521.11 133.291  38
  -4 -10   0 1207.98 74.8218  11
  -4 -10   0 1144.83 72.6694  46
  -4 -10   0 1091.23 73.5174  45
   4  10   0 1077.29 70.7694  44
   4  10   0 1157.29 73.6554  42
   4  10   0 1069.06 69.5772  49
  -4 -10   0 1095.67 71.1539  38
  -4 -10  -1 452.690 42.8033  11
   4  10   1 474.966 41.3789  16
   4  10   1 418.833 43.7795  49
  -4 -10  -1 447.451 45.3018  46
  -4 -10  -1 392.956 42.7873  45
   4  10   1 480.415 45.8365  44
   4  10   1 430.071 43.0842  42
  -4 -10  -1 378.871 40.0214  38
  -4 -10  -2 5477.04 136.262  11
   4  10   2 5442.88 138.532  16
   4  10   2 5568.34 153.035  49
  -4 -10  -2 5431.18 148.835  46
  -4 -10  -2 5613.66 152.177  45
   4  10   2 5413.24 144.027  44
   4  10   2 5659.11 148.650  42
  -4 -10  -2 5329.53 145.379  38
  -4 -10  -3 152.768 23.6854  38
   4  10   3 221.225 30.0982  49
   4  10   3 176.981 23.1751  16
  -4 -10  -3 204.622 27.6861  46
  -4 -10  -3 149.367 24.1560  45
   4  10   3 198.239 25.1225  42
  -4 -11  12 1775.42 66.7267  14
  -4 -11  11 18.0791 13.6888  14
  -4 -11  10 147.739 25.1772  17
  -4 -11   9 1008.13 64.1216  17
   4  11  -9 1073.47 66.1607  44
  -4 -11   8 18.5330 13.1326  11
  -4 -11   8 10.7137 15.9946  17
   4  11  -8 19.8280 21.4462  44
  -4 -11   7 257.495 35.0410  11
  -4 -11   7 275.036 38.6477  17
   4  11  -7 290.004 40.6424  44
  -4 -11   7 267.792 33.7563  13
  -4 -11   6 591.565 52.9358  11
  -4 -11   6 623.464 54.6643  17
   4  11  -6 669.737 62.2964  44
  -4 -11   6 616.188 53.0825  13
  -4 -11   5 4269.32 144.240  11
  -4 -11   5 4109.34 141.884  17
   4  11  -5 4385.26 147.609  44
   4  11  -5 3868.75 122.560  42
  -4 -11   4 369.840 43.7721  11
  -4 -11   4 364.867 41.2330  17
   4  11  -4 407.150 46.8546  44
   4  11  -4 328.090 36.5428  42
  -4 -11   3 1704.83 88.0955  11
  -4 -11   3 1698.61 83.4630  17
   4  11  -3 1568.49 83.7027  44
   4  11  -3 1673.03 82.7599  42
  -4 -11   2 2476.72 101.183  11
  -4 -11   2 2404.71 93.2105  17
  -4 -11   2 2281.78 93.5696  46
  -4 -11   2 2454.52 102.673  45
   4  11  -2 2368.58 99.9206  44
   4  11  -2 2498.06 100.050  42
  -4 -11   2 2326.03 94.3349  38
  -4 -11   1 51.5950 16.7118  38
  -4 -11   1 65.4822 20.9668  11
   4  11  -1 36.3653 14.2362  49
  -4 -11   1 39.5361 17.5473  46
  -4 -11   1 37.9639 15.2370  45
   4  11  -1 35.3562 14.6758  44
   4  11  -1 51.4652 18.3263  42
   4  11  -1 66.8362 17.3857  41
  -4 -11   0 303.939 31.9057  11
   4  11   0 281.976 28.6646  49
  -4 -11   0 252.456 29.3204  46
  -4 -11   0 313.353 33.2736  45
   4  11   0 292.655 32.0372  44
   4  11   0 321.350 33.3088  42
  -4 -11   0 300.298 30.6019  38
  -4 -11  -1 1967.32 73.8217  46
   4  11   1 2077.14 75.0814  44
   4  11   1 2176.11 76.6647  42
  -4 -11  -1 1911.13 71.9670  38
  -4 -12   9 21.8301 14.4686  17
  -4 -12   8 5975.03 136.610  11
  -4 -12   8 5937.43 147.512  17
   4  12  -8 5799.24 134.245  44
  -4 -12   7 1145.63 59.9590  11
  -4 -12   7 1121.49 62.7910  17
   4  12  -7 1148.16 59.5055  44
  -4 -12   7 1109.33 56.2727  13
  -4 -12   6 367.143 35.9756  11
  -4 -12   6 361.265 36.6529  17
   4  12  -6 355.652 34.4921  44
  -4 -12   6 394.080 35.5197  13
  -4 -12   5 167.777 25.3027  11
  -4 -12   5 221.927 28.3493  17
   4  12  -5 194.219 26.8344  44
   4  12  -5 166.626 20.8244  42
  -4 -12   5 174.101 25.1492  13
  -4 -12   4 3136.08 102.611  11
  -4 -12   4 3075.08 96.6064  17
   4  12  -4 3066.76 100.814  44
   4  12  -4 3109.02 93.4597  42
   4  12  -4 3208.45 99.0890  41
  -4 -12   4 3092.33 101.559  13
  -4 -12   3 2597.55 88.9810  11
  -4 -12   3 2420.66 77.6974  17
   4  12  -3 2490.81 88.1007  44
   4  12  -3 2711.44 86.8553  42
   4  12  -3 2464.33 80.9734  41
  -4 -12   3 2469.77 87.0414  13
  -4 -12   2 910.790 48.0665  11
   4  12  -2 866.497 48.0864  44
   4  12  -2 873.981 46.5080  42
  -4 -12   2 881.243 47.9887  13
   5 -12   0 211.863 24.9727  37
  -5  12   0 179.098 22.2046  42
  -5  12   0 166.159 20.8554  41
  -5  12  -1 461.390 31.7927  20
   5 -12   1 445.706 37.7046  37
   5 -12   1 379.744 32.9463  18
  -5  12  -1 441.690 35.5058  41
   5 -12   1 402.780 33.7172  47
  -5  12  -1 451.961 35.4311  42
  -5  12  -2 1041.96 53.4859  20
   5 -12   2 986.670 58.4430  37
   5 -12   2 965.993 55.8272  18
   5 -12   2 935.416 53.8152  47
  -5  12  -2 965.024 53.1137  41
  -5  12  -2 1032.33 53.7175  42
  -5  12  -3 1157.83 59.6725  20
   5 -12   3 1109.54 63.5412  37
   5 -12   3 1119.67 63.1951  18
  -5  12  -3 1150.81 53.6762  43
  -5  12  -3 1221.58 57.7891  42
  -5  12  -3 1205.64 58.5969  41
   5 -12   3 1076.00 59.1560  47
  -5  12  -4 467.444 38.8013  20
   5 -12   4 527.140 44.0845  37
   5 -12   4 459.185 42.3530  18
   5 -12   4 410.771 37.6417  47
  -5  12  -4 433.975 35.3293  43
  -5  12  -4 429.403 32.5546  42
  -5  12  -4 418.597 33.1796  41
  -5  12  -4 460.291 34.4113  39
   5 -12   5 91.4944 20.8094  37
  -5  12  -5 84.1249 18.8686  20
   5 -12   5 101.016 22.3311  18
  -5  12  -5 91.3766 19.4419  43
   5 -12   5 62.6732 18.0702  47
   5 -12   6 1558.56 73.3930  37
  -5  12  -6 1685.84 71.5491  20
   5 -12   6 1622.94 73.8670  12
   5 -12   6 1635.04 78.9525  18
   5 -12   6 1512.13 68.3900  47
  -5  12  -6 1717.13 71.1783  43
  -5  12  -6 1616.24 67.3263  39
   5 -12   7 3618.23 109.749  37
  -5  12  -7 3779.54 105.251  20
   5 -12   7 3841.61 115.092  12
   5 -12   7 3782.15 120.477  18
  -5  12  -7 3754.76 107.003  43
   5 -12   7 3559.32 104.074  47
  -5  12  -7 3803.68 105.340  39
  -5  12  -8 1903.69 66.2233  20
   5 -12   8 1846.48 75.8636  12
  -5  12  -8 2073.90 73.5779  43
  -5  12  -8 2044.84 71.7692  39
   5 -12   9 2446.57 81.2108  12
  -5  12  -9 2350.16 72.8903  43
  -5  12  -9 2345.18 71.9371  39
   5 -11  -3 6014.96 139.149  37
  -5  11   3 6302.86 136.495  41
   5 -11  -3 6246.83 138.931  47
   5 -11  -2 18.3847 13.5562  37
   5 -11  -2-6.35551 15.1234  47
  -5  11   2 17.3067 10.2349  25
  -5  11   2 6.87396 9.99492  42
  -5  11   2 31.6084 14.0418  41
   5 -11  -2 33.8922 14.6553  21
   5 -11  -1 358.456 39.1486  37
   5 -11  -1 353.274 33.7918  18
   5 -11  -1 351.148 36.2932  47
  -5  11   1 382.211 37.3085  42
  -5  11   1 342.956 31.5083  25
  -5  11   1 348.862 36.4850  41
   5 -11  -1 318.363 32.5958  21
  -5  11   0 2.88919 12.4904  42
   5 -11   0 9.46447 16.3120  37
   5 -11   0-23.0081 17.1120  47
  -5  11   0 19.4715 12.4927  20
   5 -11   0 6.17147 11.6026  18
  -5  11   0 30.5858 13.7622  25
  -5  11   0 14.0087 13.4683  41
   5 -11   0-1.02481 12.9125  21
  -5  11  -1 2193.37 91.2757  20
   5 -11   1 2237.31 102.703  37
   5 -11   1 2093.28 95.8667  18
   5 -11   1 2074.53 97.0765  47
  -5  11  -1 2239.19 96.2181  42
  -5  11  -1 2317.61 99.7769  41
   5 -11   1 2045.56 87.5448  21
  -5  11  -2 420.382 42.4471  20
   5 -11   2 425.057 45.4130  37
   5 -11   2 411.356 45.4682  18
  -5  11  -2 429.773 39.0941  43
  -5  11  -2 472.886 44.3242  42
  -5  11  -2 433.921 43.6428  41
   5 -11   2 331.803 40.2258  47
   5 -11   3 3584.81 137.304  37
   5 -11   3 3507.18 135.100  18
   5 -11   3 3562.77 133.501  47
  -5  11  -3 3621.90 120.352  43
  -5  11  -3 3668.04 123.481  42
  -5  11  -3 3670.18 124.739  41
  -5  11  -3 3657.83 127.719  20
   5 -11   4 3210.56 131.326  37
  -5  11  -4 3407.61 123.743  20
   5 -11   4 3199.40 129.454  18
   5 -11   4 3020.62 123.996  47
  -5  11  -4 3130.10 110.517  42
  -5  11  -4 3319.69 116.984  43
  -5  11  -4 3077.80 109.283  41
   5 -11   5 743.773 62.5805  37
  -5  11  -5 843.906 59.7146  20
   5 -11   5 714.614 62.2089  18
   5 -11   5 724.016 60.4892  47
  -5  11  -5 702.376 53.5050  43
   5 -11   6 2691.65 117.526  37
  -5  11  -6 2850.54 108.180  20
  -5  11  -6 2733.69 105.420  43
   5 -11   6 2688.53 118.659  18
   5 -11   6 2635.90 114.247  47
   5 -11   7 413.666 44.3322  47
   5 -11   7 394.378 44.6642  37
  -5  11  -7 453.154 43.1148  20
   5 -11   7 423.562 44.7011  12
   5 -11   7 402.951 48.8431  18
  -5  11  -7 469.641 42.8916  43
   5 -11   8 4962.89 152.546  37
  -5  11  -8 4789.48 130.160  20
   5 -11   8 4976.43 150.201  12
  -5  11  -8 4853.05 115.316  48
   5 -11   8 4826.98 147.123  47
  -5  11  -8 5159.29 137.679  43
  -5  11  -8 5296.39 141.126  39
   5 -11   9 1163.42 65.4786  37
   5 -11   9 1115.93 65.5234  12
  -5  11  -9 1072.64 49.9795  48
   5 -11   9 1094.20 60.6337  26
  -5  11  -9 1147.18 58.4472  43
   5 -11   9 1136.20 63.9165  47
  -5  11  -9 1178.77 59.3709  39
   5 -11  10 512.105 38.9448  37
   5 -11  10 565.661 42.5785  12
   5 -11  10 554.924 40.1528  47
   5 -11  10 496.654 37.5528  26
  -5  11 -10 535.628 33.8426  48
  -5  11 -10 504.556 34.8935  43
  -5  11 -10 521.066 35.7513  39
   5 -11  11 10.3992 9.73202  12
  -5  11 -11 4.13566 7.80749  48
   5 -11  11 11.6749 9.58009  26
   5 -11  11 1.73241 7.56982  23
   5 -10  -5 464.432 35.4110  37
   5 -10  -5 433.098 35.3757  47
  -5  10   5 518.266 35.2016  25
   5 -10  -5 463.331 35.6498  21
   5 -10  -4 1514.38 73.8990  37
   5 -10  -4 1524.12 74.0102  47
  -5  10   4 1610.10 70.9747  25
  -5  10   4 1603.84 71.5061  44
  -5  10   4 1574.00 68.6916  42
  -5  10   4 1497.43 70.3812  41
   5 -10  -3 9767.32 222.728  37
  -5  10   3 10084.2 210.600  25
   5 -10  -3 9548.02 219.098  47
  -5  10   3 9750.03 207.096  44
  -5  10   3 10024.1 214.711  42
  -5  10   3 9499.75 215.929  41
   5 -10  -2 187.458 32.5016  37
  -5  10   2 223.844 31.1704  25
  -5  10   2 231.488 31.0273  44
  -5  10   2 213.455 32.7900  42
  -5  10   2 248.622 36.0667  41
   5 -10  -2 217.986 35.2436  47
  -5  10   1 403.797 40.0312  20
   5 -10  -1 391.589 47.7360  37
  -5  10   1 492.155 50.0733  42
   5 -10  -1 430.818 45.1479  18
  -5  10   1 449.735 43.8774  25
   5 -10  -1 465.127 50.5360  47
  -5  10   1 489.766 51.3646  41
   5 -10  -1 422.941 45.3586  21
   5 -10   0 253.350 41.8786  37
  -5  10   0 254.889 34.2966  20
   5 -10   0 214.092 34.5301  18
  -5  10   0 259.137 35.4050  25
  -5  10   0 287.559 39.2070  42
  -5  10   0 229.614 36.2773  41
   5 -10   0 206.404 36.6791  47
   5 -10   0 221.958 34.5029  21
  -5  10  -1 472.401 48.1526  20
   5 -10   1 487.258 54.5016  37
   5 -10   1 444.677 50.9868  18
  -5  10  -1 489.896 45.6518  25
  -5  10  -1 455.437 43.7895  43
   5 -10   1 468.714 52.8147  47
  -5  10  -1 475.117 49.9519  42
  -5  10  -1 510.734 52.2272  41
   5 -10   1 453.507 48.6231  21
   5 -10   2 75.5013 24.4167  37
  -5  10  -2 82.1108 22.0731  20
   5 -10   2 106.127 28.5592  18
  -5  10  -2 61.8789 18.3772  25
   5 -10   2 56.8674 20.3693  47
  -5  10  -2 105.722 26.4687  43
  -5  10  -2 97.9712 23.3423  42
  -5  10  -2 70.4083 18.8560  41
   5 -10   2 63.5934 21.3191  21
   5 -10   3 70.6514 28.1063  37
  -5  10  -3 65.1165 22.6732  20
   5 -10   3 99.7818 31.0055  18
   5 -10   3 30.0789 19.9947  47
  -5  10  -3 78.2407 23.8766  43
  -5  10  -3 160.234 28.8463  42
   5 -10   3 74.2237 23.8237  13
  -5  10  -3 84.9939 22.8025  41
   5 -10   3 93.8499 26.5206  21
   5 -10   4 4605.66 174.166  37
  -5  10  -4 4792.23 159.286  20
   5 -10   4 4515.10 172.367  18
   5 -10   4 4313.73 165.562  47
  -5  10  -4 4576.36 151.501  43
  -5  10  -4 4448.26 146.902  42
  -5  10  -4 4274.56 143.340  41
   5 -10   4 4653.18 165.820  13
   5 -10   5 1959.83 112.149  37
  -5  10  -5 1918.01 98.5284  20
  -5  10  -5 1991.61 97.1685  43
   5 -10   5 1889.80 111.738  18
   5 -10   5 1927.72 109.309  47
   5 -10   6 167.152 37.4006  37
  -5  10  -6 120.404 28.0572  20
   5 -10   6 103.206 32.9797  18
  -5  10  -6 105.841 26.1708  43
   5 -10   6 88.1255 29.2186  47
   5 -10   7 15819.0 341.878  37
  -5  10  -7 15705.4 303.378  20
   5 -10   7 16047.7 345.799  18
  -5  10  -7 15559.3 270.443  48
   5 -10   7 15921.2 344.372  47
  -5  10  -7 16573.5 306.957  43
   5 -10   8 32.6086 24.2230  47
   5 -10   8 37.0525 21.0945  37
  -5  10  -8 44.3923 18.9293  20
   5 -10   8 60.3719 27.0589  12
   5 -10   8 36.6764 22.2893  18
  -5  10  -8 17.8413 15.1133  43
  -5  10  -8 79.4837 21.4114  48
  -5  10  -8 85.3084 25.5423  39
   5 -10   9 94.3274 26.4847  37
   5 -10   9 50.8051 21.1756  12
  -5  10  -9 98.8394 21.0959  48
  -5  10  -9 61.9878 16.1640  43
   5 -10   9 60.7849 23.2442  47
   5 -10   9 77.2157 21.0677  26
  -5  10  -9 91.7208 21.0359  39
   5 -10  10 2152.21 98.5862  37
   5 -10  10 2193.51 98.2224  12
   5 -10  10 2267.09 100.801  47
  -5  10 -10 2403.06 83.1661  48
   5 -10  10 2215.77 93.2603  26
  -5  10 -10 2175.55 81.5562  43
  -5  10 -10 2200.25 84.4826  39
   5 -10  11 1627.00 74.8953  37
   5 -10  11 1506.25 72.6368  12
   5 -10  11 1491.26 68.9568  26
  -5  10 -11 1675.54 63.8433  48
   5 -10  11 1640.52 77.6878  47
  -5  10 -11 1463.06 60.5933  39
   5 -10  12 83.0533 16.4551  12
  -5  10 -12 104.513 15.7401  48
   5 -10  12 68.0942 14.5051  26
   5 -10  12 86.5971 16.6215  23
   5  -9  -6 3861.62 115.007  37
   5  -9  -6 3918.40 118.741  47
  -5   9   6 3965.28 113.691  25
  -5   9   6 3936.76 120.043  44
  -5   9   6 3617.76 106.160  27
  -5   9   6 3535.07 102.610  41
   5  -9  -5 230.209 33.8921  37
  -5   9   5 211.158 29.0577  42
  -5   9   5 228.012 30.3940  27
   5  -9  -5 237.132 34.5535  47
  -5   9   5 217.950 31.1465  25
  -5   9   5 215.054 31.6457  44
  -5   9   5 215.660 31.3404  41
   5  -9  -4 5960.91 177.095  37
   5  -9  -4 6238.37 181.053  47
  -5   9   4 6346.30 172.872  25
  -5   9   4 5982.11 169.185  42
  -5   9   4 5772.22 173.736  41
  -5   9   4 5969.28 174.639  44
   5  -9  -3 1470.04 91.2549  47
   5  -9  -3 1404.20 88.1596  37
  -5   9   3 1410.14 82.4907  25
  -5   9   3 1429.63 84.5656  42
  -5   9   3 1332.38 85.2139  41
  -5   9   3 1392.46 83.0796  44
   5  -9  -2 5935.20 194.564  37
   5  -9  -2 6132.61 194.969  47
  -5   9   2 5886.06 178.085  25
  -5   9   2 5733.26 176.248  44
  -5   9   2 6096.20 188.209  42
  -5   9   2 5827.96 189.994  41
  -5   9   1 1503.31 86.2408  20
   5  -9  -1 1644.27 101.998  37
   5  -9  -1 1538.52 93.4924  18
   5  -9  -1 1933.45 108.994  47
  -5   9   1 1698.71 93.5675  25
  -5   9   1 1585.82 95.6752  42
  -5   9   1 1696.43 101.941  41
  -5   9   0 472.320 51.2767  20
   5  -9   0 495.477 57.4612  37
   5  -9   0 435.075 50.8014  18
  -5   9   0 533.020 56.4862  42
   5  -9   0 443.101 53.2854  47
  -5   9   0 430.203 47.2305  25
  -5   9   0 476.821 46.8970  43
  -5   9   0 498.715 56.7694  41
  -5   9  -1 12596.1 285.583  20
   5  -9   1 12213.8 309.417  37
   5  -9   1 11967.5 297.301  18
  -5   9  -1 12370.9 273.089  25
   5  -9   1 11810.8 300.858  47
  -5   9  -1 12149.3 271.332  43
  -5   9  -1 12353.4 289.825  42
  -5   9  -1 12658.7 297.080  41
   5  -9   1 12334.8 295.715  21
   5  -9   2 43.1136 26.1351  37
  -5   9  -2 71.8972 28.4663  20
   5  -9   2 34.2730 23.7622  18
   5  -9   2 28.7560 27.2544  47
  -5   9  -2 45.3048 20.7893  25
  -5   9  -2 13.8446 18.1251  43
  -5   9  -2 41.5395 23.2179  42
  -5   9  -2 61.8647 24.6031  41
   5  -9   2 43.0754 22.8118  13
   5  -9   2 72.6750 28.5415  21
   5  -9   3 8452.74 251.281  37
  -5   9  -3 8403.15 228.427  20
   5  -9   3 8145.86 247.581  18
   5  -9   3 7737.59 241.181  47
  -5   9  -3 8342.74 223.674  42
  -5   9  -3 8086.60 218.530  43
  -5   9  -3 8228.05 221.296  41
   5  -9   3 8438.52 243.544  13
   5  -9   3 8133.85 232.453  21
   5  -9   4 14785.2 353.311  37
  -5   9  -4 15185.8 319.595  20
   5  -9   4 14108.1 342.552  47
   5  -9   4 14625.1 347.430  18
  -5   9  -4 15116.2 312.452  43
  -5   9  -4 14645.9 305.309  42
   5  -9   4 15077.4 342.370  13
   5  -9   4 14412.3 326.180  21
   5  -9   5 7857.90 245.797  37
  -5   9  -5 7612.65 213.211  20
   5  -9   5 7700.03 242.930  18
  -5   9  -5 7478.70 177.653  48
  -5   9  -5 7748.31 209.154  43
   5  -9   5 7871.60 234.830  13
   5  -9   5 7544.78 220.484  21
   5  -9   5 7365.85 237.523  47
   5  -9   6 39601.7 648.384  37
  -5   9  -6 37950.9 581.034  20
   5  -9   6 37794.6 632.592  18
  -5   9  -6 37183.7 532.453  48
   5  -9   6 38204.0 635.280  47
  -5   9  -6 38750.0 579.120  43
   5  -9   7 3747.16 163.551  37
  -5   9  -7 3895.11 139.977  20
   5  -9   7 3882.89 166.549  18
  -5   9  -7 3938.88 126.779  48
   5  -9   7 3770.69 164.708  47
  -5   9  -7 3832.81 137.401  43
   5  -9   8 19.0642 21.2650  37
  -5   9  -8 42.5419 17.9815  20
   5  -9   8 47.0674 21.9967  12
   5  -9   8 14.2805 21.2722  18
  -5   9  -8 39.8289 17.9955  48
   5  -9   8 44.7693 29.1362  47
  -5   9  -8 25.6679 17.0567  43
   5  -9   9 2691.58 132.472  37
   5  -9   9 2888.86 129.113  12
  -5   9  -9 2829.47 102.663  48
   5  -9   9 2670.08 116.233  26
  -5   9  -9 2588.97 102.425  43
   5  -9   9 2855.11 132.797  47
  -5   9  -9 2794.68 111.183  39
   5  -9  10 232.840 38.5768  37
   5  -9  10 306.254 41.0770  12
  -5   9 -10 285.772 32.9830  48
   5  -9  10 283.712 42.0160  47
   5  -9  10 261.229 36.6613  26
  -5   9 -10 261.642 29.6855  43
  -5   9 -10 253.408 31.6423  39
   5  -9  11 12.9606 14.7272  37
   5  -9  11 15.3609 13.9471  12
  -5   9 -11 23.7680 14.3924  48
   5  -9  11 14.6037 16.4904  47
   5  -9  11 18.0015 13.2956  26
  -5   9 -11 45.4063 14.4348  39
   5  -9  12 1041.79 59.4457  12
   5  -9  12 1136.34 65.8873  47
   5  -9  12 1023.68 57.3432  26
  -5   9 -12 1046.66 50.8733  48
   5  -9  12 1014.66 56.7693  23
   5  -9  12 987.188 54.1060  22
   5  -9  13 2.89009 8.96832  23
  -5   9 -13 1.13374 7.11187  48
   5  -9  13 4.18091 8.37511  26
  -5   8   8 4229.19 115.465  27
   5  -8  -8 4337.20 116.751  47
  -5   8   8 4394.23 107.975  25
  -5   8   8 4356.52 123.033  44
  -5   8   7 194.648 28.8585  27
   5  -8  -7 233.022 31.8399  37
   5  -8  -7 191.875 30.4637  47
  -5   8   7 214.297 29.6159  25
  -5   8   7 243.165 34.4168  44
   5  -8  -6 7029.62 190.141  37
  -5   8   6 6966.41 186.065  27
  -5   8   6 7305.99 185.355  25
   5  -8  -6 7248.51 193.256  47
  -5   8   6 7175.09 197.411  44
  -5   8   6 6473.06 177.855  41
   5  -8  -5 5126.88 168.112  37
  -5   8   5 4944.27 161.399  27
   5  -8  -5 5353.15 174.641  47
  -5   8   5 5368.40 165.614  25
  -5   8   5 4997.99 170.136  44
  -5   8   5 4817.93 155.009  42
  -5   8   5 4717.14 162.805  41
   5  -8  -4 1438.83 91.6360  37
  -5   8   4 1530.72 88.2791  27
  -5   8   4 1481.54 88.6242  25
  -5   8   4 1460.16 88.8018  42
  -5   8   4 1439.22 92.8250  41
  -5   8   4 1414.28 90.6144  44
   5  -8  -4 1548.92 95.7685  47
   5  -8  -3 1380.91 93.9454  37
   5  -8  -3 1567.15 99.4208  47
  -5   8   3 1559.92 92.9020  25
  -5   8   3 1357.80 88.9883  44
  -5   8   3 1440.93 91.5424  42
  -5   8   3 1485.46 97.1671  41
  -5   8   2 24357.9 429.976  20
   5  -8  -2 25912.9 479.240  37
  -5   8   2 25653.3 450.097  25
  -5   8   2 24004.2 444.901  44
   5  -8  -2 26506.3 481.438  47
  -5   8   2 25734.8 464.587  42
  -5   8   2 25808.2 476.759  41
  -5   8   1 2333.57 113.911  20
   5  -8  -1 2428.36 128.184  37
  -5   8   1 2342.78 110.279  43
   5  -8  -1 2573.78 131.262  47
  -5   8   1 2426.09 116.436  25
  -5   8   1 2361.30 120.895  42
  -5   8   1 2414.81 125.263  41
  -5   8   0 18150.5 364.726  20
   5  -8   0 18794.5 398.287  37
   5  -8   0 17806.7 379.588  18
   5  -8   0 18406.6 394.280  47
  -5   8   0 18361.7 360.120  25
  -5   8   0 18310.1 374.698  42
  -5   8   0 18681.3 384.778  41
  -5   8   0 18054.8 354.703  43
   5  -8   1 144.790 35.6555  37
  -5   8  -1 153.192 33.9654  20
   5  -8   1 170.580 38.6626  18
   5  -8   1 113.046 31.5664  47
  -5   8  -1 157.119 31.2597  25
  -5   8  -1 123.471 28.9622  43
  -5   8  -1 112.943 29.3048  42
  -5   8  -1 183.703 37.3008  41
   5  -8   1 172.290 36.5370  21
  -5   8  -2 24990.5 450.930  20
   5  -8   2 24633.1 483.003  37
   5  -8   2 24291.6 473.187  18
  -5   8  -2 24758.1 428.918  25
  -5   8  -2 25199.3 438.246  43
  -5   8  -2 25188.9 448.517  42
  -5   8  -2 25032.6 448.494  41
   5  -8   2 25739.0 480.857  13
   5  -8   2 24159.9 475.116  47
   5  -8   2 24312.8 451.223  40
   5  -8   2 24905.3 468.514  21
   5  -8   3 4445.73 182.523  37
  -5   8  -3 4571.14 166.105  20
   5  -8   3 4499.49 182.819  18
   5  -8   3 4501.81 181.463  47
  -5   8  -3 4481.51 158.190  43
  -5   8  -3 4551.53 161.425  42
  -5   8  -3 4586.83 159.501  41
   5  -8   3 4693.13 180.804  13
   5  -8   3 4613.18 169.000  40
   5  -8   3 4488.64 174.905  21
   5  -8   4 53.0176 21.9748  37
  -5   8  -4 98.5991 27.2128  20
   5  -8   4 52.9895 28.8747  18
  -5   8  -4 36.1598 16.9784  48
   5  -8   4-32.2102 46.6864  47
  -5   8  -4 61.1545 19.9599  43
  -5   8  -4 47.0529 23.9029  42
   5  -8   4 65.6877 30.4333  13
   5  -8   4 32.4087 20.8402  21
   5  -8   5 26469.2 510.764  37
  -5   8  -5 27031.7 462.681  20
   5  -8   5 26866.4 511.221  18
  -5   8  -5 26881.5 418.615  48
   5  -8   5 25665.8 508.399  47
  -5   8  -5 27031.0 457.886  43
   5  -8   5 27343.4 504.114  13
   5  -8   5 26147.7 486.366  21
   5  -8   6 526.501 67.6187  37
  -5   8  -6 643.279 61.1373  20
   5  -8   6 612.317 69.6719  18
   5  -8   6 469.214 64.6647  47
  -5   8  -6 575.590 58.4655  43
   5  -8   6 577.047 65.0016  21
   5  -8   7 10992.7 299.717  37
  -5   8  -7 10321.2 244.175  20
   5  -8   7 10633.1 291.473  18
   5  -8   7 10420.4 295.453  47
  -5   8  -7 10284.6 241.153  43
   5  -8   7 10427.6 271.385  21
   5  -8   8 5161.02 197.150  37
   5  -8   8 4997.72 186.447  12
   5  -8   8 4909.78 198.097  47
  -5   8  -8 4722.03 150.795  43
  -5   8  -8 5213.25 165.511  39
   5  -8   9 82.9367 30.7817  37
   5  -8   9 129.869 35.3617  12
  -5   8  -9 129.793 31.2875  48
   5  -8   9 122.347 36.1233  47
   5  -8   9 86.6705 28.8642  26
  -5   8  -9 86.5020 21.7201  43
  -5   8  -9 83.7698 23.7329  39
   5  -8  10 491.781 56.3421  37
   5  -8  10 525.242 56.1059  12
  -5   8 -10 551.353 47.0743  48
   5  -8  10 509.387 59.8959  47
   5  -8  10 433.141 48.1708  26
  -5   8 -10 504.112 46.2953  39
   5  -8  11 93.9914 26.2645  37
   5  -8  11 98.8222 25.1884  12
  -5   8 -11 123.609 22.6918  48
   5  -8  11 116.964 31.0759  47
   5  -8  11 77.5583 21.4673  26
  -5   8 -11 93.5382 18.7196  39
   5  -8  12 13.5135 13.2556  12
  -5   8 -12 30.6692 12.6652  48
   5  -8  12 24.6820 17.6219  47
   5  -8  12 8.75809 13.4670  26
   5  -8  12 42.3375 14.3957  23
   5  -8  12 23.0270 12.9024  22
   5  -8  13 89.1789 18.2229  12
  -5   8 -13 88.3642 13.4765  45
   5  -8  13 90.7494 17.3888  26
   5  -8  13 120.650 19.9591  23
  -5   8 -13 74.4518 13.9101  48
   5  -8  13 113.506 18.2970  22
  -5   7   9 47.1511 15.9263  27
   5  -7  -9 98.5117 21.2996  47
  -5   7   9 69.3893 15.1060  25
  -5   7   9 66.6916 20.1473  44
   5  -7  -8 328.834 39.0800  37
  -5   7   8 277.816 37.0147  27
  -5   7   8 310.440 34.9537  25
  -5   7   8 271.106 26.0842  24
  -5   7   8 273.186 38.2095  44
   5  -7  -7 208.769 35.5963  37
  -5   7   7 216.555 26.5905  24
  -5   7   7 197.289 34.4496  27
  -5   7   7 182.532 29.8701  25
  -5   7   7 213.933 37.0898  44
  -5   7   7 157.984 28.2776  41
   5  -7  -6 4578.84 162.850  37
  -5   7   6 4078.87 120.553  24
  -5   7   6 3959.21 151.346  41
  -5   7   6 4162.83 157.335  27
  -5   7   6 4443.66 153.612  25
  -5   7   6 4419.92 166.796  44
  -5   7   6 4194.94 143.322  42
   5  -7  -5 862.874 72.8194  37
  -5   7   5 792.818 68.2032  27
  -5   7   5 915.566 71.3599  25
  -5   7   5 788.759 52.1856  24
  -5   7   5 871.620 75.9105  44
  -5   7   5 861.833 68.5873  42
  -5   7   5 823.773 72.3193  41
  -5   7   4 64.8709 25.3252  25
  -5   7   4 25.8530 20.9471  44
  -5   7   4 86.6641 24.9779  42
  -5   7   4 49.4744 22.8023  41
   5  -7  -3 1556.31 101.515  37
  -5   7   3 1745.21 103.435  44
  -5   7   3 1694.80 98.2698  25
  -5   7   3 1408.91 91.9013  42
  -5   7   3 1375.80 95.5633  41
  -5   7   2 5863.62 184.560  20
   5  -7  -2 6171.49 207.821  37
  -5   7   2 5726.62 180.229  43
   5  -7  -2 6423.75 210.876  47
  -5   7   2 5920.35 190.585  25
  -5   7   2 5850.99 191.011  44
  -5   7   2 5894.84 195.816  42
  -5   7   2 6040.20 204.482  41
  -5   7   1 2580.22 120.107  20
   5  -7  -1 2756.98 137.341  37
  -5   7   1 2608.86 119.273  43
   5  -7  -1 2983.82 140.599  47
  -5   7   1 2628.05 121.572  25
  -5   7   1 2561.14 125.160  42
  -5   7   1 2604.80 128.722  41
  -5   7   0 20490.2 389.450  20
   5  -7   0 20658.0 422.358  37
   5  -7   0 20840.4 418.879  47
  -5   7   0 20463.7 385.810  25
  -5   7   0 20597.4 384.841  43
  -5   7   0 19946.8 394.570  42
  -5   7   0 20060.8 400.906  41
  -5   7  -1 12449.2 287.811  20
   5  -7   1 12691.2 315.918  37
   5  -7   1 11835.5 300.251  18
   5  -7   1 12666.7 311.120  47
  -5   7  -1 12203.9 280.046  43
  -5   7  -1 12406.1 289.161  42
  -5   7  -1 12287.4 278.750  25
  -5   7  -1 12371.0 290.074  41
   5  -7   2 93.9339 31.3894  37
  -5   7  -2 19.3026 21.3381  20
   5  -7   2 19.7837 18.1544  18
   5  -7   2 22.1409 19.9284  47
  -5   7  -2-4.35952 19.6975  25
  -5   7  -2 20.1045 19.4769  43
  -5   7  -2 33.2969 20.5022  42
  -5   7  -2 11.8922 19.7320  41
   5  -7   2 13.0782 20.3743  13
   5  -7   2 19.6495 25.3145  21
   5  -7   3 12297.2 318.460  37
  -5   7  -3 12731.9 287.682  20
   5  -7   3 12414.6 314.361  18
   5  -7   3 12343.4 312.062  47
  -5   7  -3 12783.1 281.046  43
  -5   7  -3 12806.3 284.413  42
   5  -7   3 12741.6 309.033  13
   5  -7   3 12993.8 306.559  40
   5  -7   3 12574.0 308.194  21
   5  -7   4 1334.15 98.5162  37
  -5   7  -4 1444.64 88.1500  20
   5  -7   4 1383.57 97.9742  18
  -5   7  -4 1458.10 76.3729  48
   5  -7   4 1382.49 98.6132  47
  -5   7  -4 1428.02 84.4720  43
  -5   7  -4 1340.63 81.7798  42
   5  -7   4 1295.39 93.6003  13
   5  -7   4 1379.00 94.2696  40
   5  -7   4 1340.40 94.0113  21
   5  -7   5 17.0032 28.3478  37
  -5   7  -5 58.3720 24.0412  20
   5  -7   5 30.4706 25.3668  18
   5  -7   5 26.7277 25.1928  47
  -5   7  -5 48.7163 23.3599  43
   5  -7   5 7.45493 20.4074  40
   5  -7   5 38.9205 21.1041  21
   5  -7   6 41874.3 692.859  37
  -5   7  -6 41911.4 623.716  20
   5  -7   6 41843.3 689.165  18
  -5   7  -6 42181.7 617.908  43
   5  -7   6 42889.8 673.238  40
   5  -7   6 41828.0 677.279  21
   5  -7   6 42154.3 695.253  47
   5  -7   7 5491.55 208.161  47
   5  -7   7 5826.41 214.254  37
  -5   7  -7 5651.43 172.032  20
   5  -7   7 5770.54 200.262  12
   5  -7   7 5778.82 209.755  18
  -5   7  -7 5891.69 172.895  43
   5  -7   7 5849.86 201.648  40
   5  -7   7 5752.91 202.175  21
   5  -7   8 1705.74 113.449  37
   5  -7   8 1664.07 106.699  12
   5  -7   8 1596.59 113.266  47
  -5   7  -8 1548.50 82.9087  43
   5  -7   8 1614.92 102.226  21
  -5   7  -8 1634.47 91.4654  39
   5  -7   9 8726.01 261.051  37
   5  -7   9 8531.55 245.271  12
  -5   7  -9 8989.22 207.718  48
   5  -7   9 8762.29 263.389  47
   5  -7   9 8273.23 228.934  26
   5  -7   9 8471.59 242.943  21
  -5   7  -9 8962.82 221.403  39
   5  -7  10 486.641 58.2701  37
   5  -7  10 527.857 58.8446  12
  -5   7 -10 561.388 49.0633  48
   5  -7  10 507.451 63.4963  47
   5  -7  10 462.443 50.6808  26
  -5   7 -10 512.647 48.0305  39
   5  -7  11 698.397 60.8796  12
   5  -7  11 726.737 66.4470  37
  -5   7 -11 747.401 51.4820  48
   5  -7  11 732.652 69.0343  47
   5  -7  11 679.164 56.9003  26
  -5   7 -11 678.673 49.2909  39
   5  -7  12 425.663 42.4856  26
   5  -7  12 492.309 47.5633  12
  -5   7 -12 496.148 38.7767  48
   5  -7  12 457.965 43.7072  23
   5  -7  12 475.129 44.6503  22
   5  -7  12 497.571 53.8286  47
  -5   7 -13 721.486 40.3634  48
   5  -7  13 709.136 47.3651  26
  -5   7 -13 652.091 37.7931  45
   5  -7  13 659.779 46.3412  23
   5  -7  13 695.371 45.8182  22
   5  -7  13 674.617 47.1996  12
   5  -7  14 68.7840 14.4966  26
   5  -7  14 66.2666 13.1793  23
  -5   6  10 625.488 36.7030  24
  -5   6  10 550.837 46.6101  27
  -5   6   9 5139.71 139.170  25
  -5   6   9 5121.92 129.377  24
  -5   6   9 5376.15 167.238  27
  -5   6   9 5394.30 168.722  44
  -5   6   8 830.287 70.7107  27
  -5   6   8 835.349 61.1077  25
  -5   6   8 820.594 53.5520  24
  -5   6   8 820.356 71.4519  44
   5  -6  -7 325.900 45.6713  37
  -5   6   7 267.554 41.7088  27
  -5   6   7 304.344 40.0075  25
  -5   6   7 304.244 35.0948  24
  -5   6   7 316.211 47.6753  44
  -5   6   7 256.489 38.4705  41
   5  -6  -6 14115.5 319.365  37
  -5   6   6 13389.5 318.598  27
  -5   6   6 13331.3 298.165  25
  -5   6   6 13089.8 261.686  24
  -5   6   6 12789.2 286.405  42
  -5   6   6 13024.7 309.920  41
  -5   6   6 13128.8 322.142  44
  -5   6   5 12456.0 308.347  41
   5  -6  -5 12968.4 309.314  37
  -5   6   5 12287.5 301.943  27
  -5   6   5 13008.9 294.926  25
  -5   6   5 12549.1 255.988  24
  -5   6   5 12756.3 316.816  44
  -5   6   5 12443.0 291.066  42
   5  -6  -4 2723.44 132.632  37
  -5   6   4 2495.40 119.923  25
  -5   6   4 2457.07 126.898  44
  -5   6   4 2377.69 119.320  42
  -5   6   4 2514.05 102.031  24
  -5   6   4 2351.70 123.991  41
  -5   6   3 2685.06 103.552  24
   5  -6  -3 2615.12 129.774  37
  -5   6   3 2525.10 119.860  25
  -5   6   3 2554.34 125.207  44
  -5   6   3 2386.75 120.023  42
  -5   6   3 2406.03 125.409  41
  -5   6   2 583.216 56.3340  20
   5  -6  -2 663.886 66.0956  37
  -5   6   2 664.266 59.7938  25
  -5   6   2 700.033 50.7998  24
  -5   6   2 610.098 56.9618  43
  -5   6   2 604.192 58.7030  42
  -5   6   2 631.159 64.3681  41
  -5   6   2 637.467 60.7050  44
   5  -6  -1 283.910 43.4190  37
  -5   6   1 289.883 39.8663  20
  -5   6   1 284.896 39.6114  25
  -5   6   1 280.695 30.7971  24
   5  -6  -1 288.503 44.4833  47
  -5   6   1 309.078 41.1223  43
  -5   6   1 255.326 39.5492  42
  -5   6   1 376.186 45.8845  41
  -5   6   0 2814.89 122.552  20
   5  -6   0 2681.71 131.524  37
   5  -6   0 2740.62 132.002  47
  -5   6   0 2683.69 118.463  25
  -5   6   0 2612.58 117.810  43
  -5   6   0 2703.67 121.735  42
  -5   6   0 2678.71 123.070  41
   5  -6   0 2679.42 366.274   3
  -5   6  -1 4144.64 150.864  20
   5  -6   1 4159.30 165.069  37
  -5   6  -1 3512.35 376.986  35
   5  -6   1 4023.22 161.391  47
  -5   6  -1 3971.30 143.873  43
  -5   6  -1 4018.40 148.318  42
  -5   6  -1 3980.06 149.004  41
   5  -6   1 3755.44 451.294   3
  -5   6  -1 3748.04 368.066   6
  -5   6  -1 4113.79 146.390  25
  -5   6  -2 31140.4 503.001  20
   5  -6   2 30896.8 539.118  37
   5  -6   2 29773.6 1221.71  33
   5  -6   2 30943.3 537.427  47
  -5   6  -2 31877.8 497.299  25
  -5   6  -2 30679.7 494.993  43
  -5   6  -2 31242.1 502.192  42
  -5   6  -2 30776.0 498.407  41
   5  -6   2 30180.6 518.289  13
   5  -6   2 31186.5 1382.93   3
  -5   6  -2 30980.1 1107.36   6
   5  -6   2 31117.2 534.362  21
  -5   6  -3 519.582 51.6318  20
   5  -6   3 350.648 48.0140  37
   5  -6   3 506.823 55.6247  18
   5  -6   3 178.180 97.7393   3
   5  -6   3 550.795 161.887   1
  -5   6  -3 1050.53 176.403  28
  -5   6  -3 359.108 42.8844  43
  -5   6  -3 424.753 46.0614  42
   5  -6   3 403.661 51.6460  47
   5  -6   3 425.448 51.9458  40
  -5   6  -3 968.078 58.7573  48
   5  -6   3 404.930 51.3173  21
   5  -6   4 14920.2 350.958  37
  -5   6  -4 15684.5 316.791  20
   5  -6   4 14845.0 341.495  18
  -5   6  -4 15842.7 286.092  48
   5  -6   4 14691.4 345.163  47
  -5   6  -4 15081.1 304.300  43
  -5   6  -4 14789.7 302.093  42
   5  -6   4 15946.8 347.825  40
   5  -6   4 15273.2 343.394  21
   5  -6   5 7238.75 235.478  47
   5  -6   5 7298.75 236.342  37
  -5   6  -5 7303.95 203.472  20
   5  -6   5 7267.41 230.011  18
  -5   6  -5 7377.36 196.007  43
   5  -6   5 7667.90 232.252  40
   5  -6   5 7134.38 225.592  21
  -5   6  -6 394.666 44.2194  20
   5  -6   6 491.163 57.5447  12
   5  -6   6 338.685 50.7677  37
   5  -6   6 433.747 56.2756  18
   5  -6   6 341.725 52.7908  47
  -5   6  -6 386.238 41.9837  43
   5  -6   6 452.431 56.0697  40
   5  -6   6 341.319 48.8268  21
   5  -6   7 34.9524 21.9156  37
   5  -6   7 7.24531 24.6192  12
   5  -6   7 23.7657 24.8603  47
  -5   6  -7 47.9482 16.5202  43
   5  -6   7 41.2801 23.3760  40
  -5   6  -7 27.2247 17.8705  39
   5  -6   7 14.9908 21.0251  21
   5  -6   8 1063.67 90.5815  37
   5  -6   8 1126.41 86.5988  12
   5  -6   8 1049.63 77.6803  26
   5  -6   8 1114.98 94.1918  47
   5  -6   8 1138.13 90.5184  40
   5  -6   8 1144.12 88.7847  21
   5  -6   9 1107.66 90.7004  37
   5  -6   9 1149.06 87.3013  12
  -5   6  -9 1173.42 72.0086  48
   5  -6   9 1106.60 78.3578  26
   5  -6   9 1065.24 88.7832  47
   5  -6   9 1073.93 83.1140  40
   5  -6   9 1254.82 92.6429  21
  -5   6  -9 1133.54 74.0674  39
   5  -6  10 15.6511 20.9507  37
   5  -6  10-9.22294 21.6270  12
  -5   6 -10 31.8752 17.9564  48
   5  -6  10 11.0089 16.4445  26
   5  -6  10 23.3872 21.1416  47
   5  -6  10 19.9123 21.2576  40
   5  -6  10 17.0177 18.1787  21
  -5   6 -10 23.2747 12.4838  39
   5  -6  11 1035.07 74.4113  12
   5  -6  11 1126.85 87.9092  47
   5  -6  11 946.330 70.1664  22
   5  -6  11 1046.03 75.6955  40
  -5   6 -11 1102.29 63.8295  48
   5  -6  11 1000.94 71.2515  26
  -5   6 -11 954.046 58.9849  39
  -5   6 -12 344.406 34.9418  45
   5  -6  12 329.173 40.1071  12
   5  -6  12 344.118 47.4945  47
  -5   6 -12 361.081 33.2900  48
   5  -6  12 321.523 37.6937  23
   5  -6  12 351.819 40.8344  22
   5  -6  12 363.351 39.1814  26
  -5   6 -13 272.045 24.4970  48
  -5   6 -13 274.936 25.4117  45
   5  -6  13 272.345 30.8685  23
   5  -6  13 326.226 34.0463  22
   5  -6  13 308.802 32.2108  26
   5  -6  13 337.510 36.2453  12
   5  -6  14 75.3974 16.1660  26
   5  -6  14 49.8475 11.8457  23
  -5   5  11 1963.10 87.7685  27
  -5   5  11 1968.06 68.8140  24
  -5   5  10 13.1508 19.0035  44
  -5   5  10 27.9461 19.3994  27
  -5   5  10 29.9430 14.6777  24
  -5   5   9 5925.55 162.933  25
  -5   5   9 5757.40 194.355  27
  -5   5   9 5888.31 158.263  24
  -5   5   9 6163.94 199.493  44
  -5   5   8 6083.28 207.841  27
  -5   5   8 6209.99 170.344  24
  -5   5   8 6224.91 181.896  25
  -5   5   8 6183.66 210.122  44
  -5   5   7 7576.10 236.055  27
  -5   5   7 7725.78 213.488  25
  -5   5   7 7583.79 237.736  44
  -5   5   7 7718.48 197.527  24
  -5   5   7 7531.21 224.237  41
  -5   5   6 6010.58 206.183  27
  -5   5   6 5864.34 186.912  25
  -5   5   6 5930.30 208.243  44
  -5   5   6 6088.61 172.371  24
  -5   5   6 5992.54 201.224  41
   5  -5  -5 21819.3 419.691  37
  -5   5   5 20766.7 414.256  27
  -5   5   5 20785.2 396.110  25
  -5   5   5 21051.4 424.763  44
  -5   5   5 21438.9 368.332  24
  -5   5   5 20142.8 392.046  42
  -5   5   5 20982.7 416.553  41
   5  -5  -4 58313.0 822.778  37
  -5   5   4 54073.1 801.035  27
  -5   5   4 57253.2 792.427  25
  -5   5   4 56910.3 747.365  24
  -5   5   4 57751.4 822.446  44
  -5   5   4 54666.8 789.806  42
  -5   5   4 56473.8 818.232  41
   5  -5  -3 1681.63 99.9433  37
  -5   5   3 1647.20 92.8554  25
  -5   5   3 1732.60 83.0905  24
  -5   5   3 1649.96 96.7941  44
  -5   5   3 1612.13 91.7695  43
  -5   5   3 1463.63 90.3231  42
  -5   5   3 1703.92 101.381  41
  -5   5   2 3434.16 131.303  20
   5  -5  -2 3489.06 145.624  37
  -5   5   2 3289.28 113.662  24
  -5   5   2 3557.45 401.285  35
  -5   5   2 3446.49 133.016  25
  -5   5   2 4057.32 443.230   8
  -5   5   2 3427.43 134.043  43
  -5   5   2 3428.44 137.178  42
  -5   5   2 3304.01 138.112  41
   5  -5  -2 3253.62 366.305   3
  -5   5   1 4361.30 424.710  35
   5  -5  -1 5096.03 465.116  33
   5  -5  -1 4748.65 453.567   3
  -5   5   0 37.8075 43.6873   6
  -5   5   0 104.565 63.0883  35
   5  -5   0-79.6305 67.7788  33
   5  -5   0-8.42909 74.6928   3
   5  -5   1 38085.3 1348.63  33
  -5   5  -1 39369.8 1091.70  28
   5  -5   1 42030.7 1519.71   3
  -5   5  -1 39346.4 1193.54   6
  -5   5  -2 22656.3 809.722  28
   5  -5   2 24325.3 1195.42   3
  -5   5  -2 22127.3 886.517   6
  -5   5  -3 39.1219 37.8190   6
   5  -5   3-34.5531 77.1422   1
   5  -5   3 33.8922 48.4319  33
   5  -5   3 17.0956 95.1741   3
  -5   5  -3 53.7892 55.4735  28
  -5   5  -4 10521.8 560.777  28
   5  -5   4 10552.3 724.200   1
   5  -5   4 10355.2 803.543   3
  -5   5  -4 10312.2 620.765   6
  -5   5  -5 28368.1 463.779  20
   5  -5   5 28565.7 518.996  37
   5  -5   5 28231.5 497.506  12
   5  -5   5 28886.3 512.615  18
  -5   5  -5 29385.8 442.458  48
   5  -5   5 28317.8 516.827  47
   5  -5   5 31022.7 1300.77   1
   5  -5   5 31452.7 1420.20   7
  -5   5  -5 29365.3 455.973  43
   5  -5   5 29876.5 524.452  40
   5  -5   5 29633.9 518.332  21
   5  -5   6 287.358 47.3513  37
   5  -5   6 266.159 42.0940  12
  -5   5  -6 373.444 40.7792  48
   5  -5   6 254.755 46.0384  47
  -5   5  -6 333.345 39.2183  43
   5  -5   6 350.823 54.3282  40
  -5   5  -6 351.934 42.6077  39
   5  -5   6 278.483 47.9028  21
   5  -5   7 33317.7 589.714  37
   5  -5   7 33427.0 566.484  12
  -5   5  -7 34734.0 503.221  48
   5  -5   7 33888.1 587.790  40
   5  -5   7 33239.6 589.574  47
   5  -5   7 33503.3 588.633  21
  -5   5  -7 33902.1 524.844  39
   5  -5   8 8713.40 269.792  37
   5  -5   8 8727.83 251.525  12
  -5   5  -8 9015.69 209.802  48
   5  -5   8 8877.69 266.961  47
   5  -5   8 8400.43 229.090  26
   5  -5   8 9013.26 263.009  40
   5  -5   8 8943.23 263.561  21
  -5   5  -8 8956.25 223.420  39
   5  -5   9 847.913 73.3362  12
   5  -5   9 715.750 76.8022  37
  -5   5  -9 798.212 57.2388  48
   5  -5   9 796.058 78.5671  47
   5  -5   9 757.259 64.0480  26
   5  -5   9 736.221 71.0473  40
   5  -5   9 768.572 74.9273  21
  -5   5  -9 826.606 62.5887  39
   5  -5  10 1045.48 78.4476  12
   5  -5  10 1253.75 96.5660  37
  -5   5 -10 1230.44 69.3552  48
   5  -5  10 1294.98 95.6376  47
   5  -5  10 1153.27 88.7522  40
   5  -5  10 1107.92 76.9454  26
   5  -5  10 1176.90 90.8561  21
  -5   5 -10 1197.31 72.0854  39
   5  -5  11 3181.30 134.969  12
   5  -5  11 3164.71 125.208  26
  -5   5 -11 3338.66 110.767  48
   5  -5  11 3511.48 154.126  47
   5  -5  11 3029.40 124.227  23
   5  -5  11 3344.66 136.081  22
   5  -5  11 3344.90 145.556  40
   5  -5  11 3371.37 143.721  21
   5  -5  12 6.29127 15.0301  12
   5  -5  12-28.2945 20.4545  26
  -5   5 -12-3.28463 11.1807  45
   5  -5  12 0.54766 14.8886  23
   5  -5  12 13.0436 17.8301  22
   5  -5  12-2.20080 18.8966  40
  -5   5 -12 4.48073 11.7954  48
   5  -5  12-2.61401 15.9961  21
   5  -5  13 330.962 32.8155  23
   5  -5  13 382.422 37.3863  22
   5  -5  13 348.530 37.9684  40
   5  -5  13 340.286 34.4529  26
   5  -5  13 361.462 36.8641  12
   5  -5  14 55.8749 14.4419  26
  -5   4  12 686.939 50.8961  27
  -5   4  12 744.628 42.1996  24
  -5   4  11 235.290 37.3791  27
  -5   4  11 232.504 29.4181  24
  -5   4  10 126.849 32.9946  27
  -5   4  10 217.989 41.5184  44
  -5   4  10 156.436 29.8997  24
  -5   4   9 911.249 80.0832  27
  -5   4   9 939.462 82.0964  44
  -5   4   9 1034.52 68.2781  24
  -5   4   8 932.976 80.5602  27
  -5   4   8 982.782 69.5652  25
  -5   4   8 994.507 83.7917  44
  -5   4   8 1015.32 69.3170  24
  -5   4   8 918.874 73.3411  41
  -5   4   7 3704.02 160.676  27
  -5   4   7 3636.37 141.115  25
  -5   4   7 3858.39 164.910  44
  -5   4   7 3775.39 135.400  24
  -5   4   7 3551.05 151.090  41
  -5   4   6 10255.4 268.673  41
  -5   4   6 10114.1 272.499  27
  -5   4   6 10672.4 255.196  25
  -5   4   6 10440.0 280.423  44
  -5   4   6 10260.8 236.247  24
  -5   4   5 1621.28 99.0537  27
  -5   4   5 1634.36 92.3680  25
  -5   4   5 1615.41 99.8224  44
  -5   4   5 1678.73 86.1317  24
  -5   4   5 1502.97 88.1285  42
  -5   4   5 1476.68 94.6927  41
  -5   4   4 44667.2 677.322  27
  -5   4   4 47879.9 672.808  25
  -5   4   4 47223.7 639.127  24
  -5   4   4 46388.1 673.016  43
  -5   4   4 45626.0 669.153  42
  -5   4   4 46702.0 691.913  41
  -5   4   4 46232.4 693.007  44
  -5   4   3 239.258 101.614  35
   5  -4  -3 314.025 111.469  33
   5  -4  -3 337.406 116.059   3
  -5   4   3 270.107 123.038   8
  -5   4   2 3616.04 381.917  35
   5  -4  -2 3669.26 383.508  33
  -5   4   2 3900.32 417.234   8
   5  -4  -2 3736.89 379.070   3
  -5   4   1 2837.24 319.050  35
   5  -4  -1 2932.51 338.465  33
   5  -4  -1 2865.28 338.050   3
  -5   4   0 21255.7 853.180  35
   5  -4   0 23002.6 977.977  33
  -5   4   0 21688.7 774.555  28
  -5   4   0 22520.9 825.545   6
   5  -4   0 23025.3 1030.39   3
   5  -4   1 39005.7 1315.41  33
  -5   4  -1 39785.8 1081.59  28
  -5   4  -1 36884.4 1112.19   6
   5  -4   1 41493.7 1479.49   3
   5  -4   2 5958.86 502.100  33
  -5   4  -2 6270.09 405.892  28
   5  -4   2 6285.74 477.858   1
   5  -4   2 6019.38 579.965   3
  -5   4  -2 5668.69 421.237   6
   5  -4   3 22234.0 1014.18  33
  -5   4  -3 23266.8 823.435  28
   5  -4   3 25204.7 1022.96   1
   5  -4   3 25364.8 1253.05   3
  -5   4  -3 22103.6 880.737   6
  -5   4  -4 17419.1 626.088  32
  -5   4  -4 16873.8 701.844  28
   5  -4   4 18987.9 929.480   1
   5  -4   4 17942.2 1061.77   3
  -5   4  -4 16073.4 764.358   6
  -5   4  -5 14385.5 589.152  32
   5  -4   5 13893.6 833.323   5
  -5   4  -5 14520.8 665.215  28
   5  -4   5 13914.0 840.931   1
   5  -4   5 15722.5 994.832   7
  -5   4  -5 14121.5 724.700   6
   5  -4   6 28808.1 521.561  37
   5  -4   6 28476.0 500.678  12
  -5   4  -6 29569.0 911.253  32
  -5   4  -6 28895.6 442.713  48
   5  -4   6 29307.5 520.170  47
   5  -4   6 29618.8 528.617  40
   5  -4   6 28877.7 524.367  21
  -5   4  -6 29387.4 467.945  39
   5  -4   7 71.1064 29.3995  37
   5  -4   7 56.2517 28.4129  12
  -5   4  -7 94.5981 26.1490  48
   5  -4   7 60.6203 30.1913  47
   5  -4   7 72.2249 23.3928  26
   5  -4   7 82.3989 34.4650  40
  -5   4  -7 93.0439 28.7916  39
   5  -4   7 90.3899 32.2471  21
   5  -4   8 5140.97 185.203  12
   5  -4   8 5307.37 200.714  37
  -5   4  -8 5432.51 154.390  48
   5  -4   8 5305.71 198.854  47
   5  -4   8 4818.64 164.734  26
   5  -4   8 5259.12 197.866  40
   5  -4   8 5144.84 198.020  21
  -5   4  -8 5348.15 165.921  39
   5  -4   9 115.252 35.9678  37
   5  -4   9 73.9454 25.3543  12
   5  -4   9 113.157 32.5403  47
   5  -4   9 116.329 28.7493  26
   5  -4   9 112.010 34.7091  40
   5  -4   9 129.096 33.8291  21
  -5   4  -9 86.0494 25.5751  39
   5  -4  10 8314.27 237.227  12
  -5   4 -10 8168.81 191.385  48
   5  -4  10 8059.86 216.136  26
   5  -4  10 8646.19 236.641  22
   5  -4  10 8577.13 252.876  40
   5  -4  10 8671.63 258.625  21
   5  -4  10 8636.60 255.585  47
  -5   4 -10 8333.79 203.597  39
   5  -4  11 1945.56 104.731  12
   5  -4  11 2148.06 120.696  47
   5  -4  11 1952.40 103.757  22
  -5   4 -11 1824.89 80.4028  48
   5  -4  11 1763.92 89.7297  23
   5  -4  11 1933.93 95.5634  26
  -5   4 -11 1936.77 90.6632  45
   5  -4  11 1984.21 113.839  40
   5  -4  11 1912.34 111.141  21
   5  -4  12 613.109 50.7597  26
  -5   4 -12 562.547 43.6837  45
   5  -4  12 556.050 45.1408  23
   5  -4  12 619.637 54.5782  22
   5  -4  12 610.136 58.7082  40
   5  -4  12 621.049 59.0890  21
   5  -4  12 599.586 54.4042  12
   5  -4  13 753.156 49.8600  26
   5  -4  13 641.392 40.9329  23
   5  -4  13 683.497 49.4730  22
   5  -4  13 758.804 57.5138  40
   5  -4  13 789.371 54.1869  12
   5  -4  14 430.271 31.8035  26
  -5   3  13 304.440 33.1777  27
  -5   3  13 323.094 27.4402  24
  -5   3  12 1715.23 91.4305  27
  -5   3  12 1911.60 78.9267  24
  -5   3  11 267.246 35.9350  24
  -5   3  11 238.439 40.4699  27
  -5   3  10 2663.85 135.770  27
  -5   3  10 2765.89 136.403  44
  -5   3  10 2824.78 115.282  24
  -5   3   9 23166.4 462.425  27
  -5   3   9 23776.7 409.512  24
  -5   3   9 23744.9 466.292  44
  -5   3   8 22954.4 455.367  27
  -5   3   8 22777.7 458.088  44
  -5   3   8 23560.7 407.338  24
  -5   3   8 22386.5 430.670  41
  -5   3   7 1105.87 86.2337  27
  -5   3   7 1306.72 94.8138  44
  -5   3   7 1302.72 79.2146  24
  -5   3   7 1174.54 86.2938  41
  -5   3   6 3960.12 142.123  25
  -5   3   6 3821.61 155.510  27
  -5   3   6 3851.51 158.409  44
  -5   3   6 4086.28 137.421  24
  -5   3   6 3945.09 155.428  41
   5  -3  -5 2769.15 341.205  33
  -5   3   5 2791.91 127.346  27
  -5   3   5 2860.36 117.829  25
  -5   3   5 2814.32 129.448  44
  -5   3   5 2927.98 111.802  24
  -5   3   5 2951.06 129.931  41
   5  -3  -4 30414.6 1107.75   3
  -5   3   4 30874.1 1192.68  35
   5  -3  -4 32166.5 1161.54  33
  -5   3   4 31943.6 1291.33   8
  -5   3   3 84.1153 60.2930  35
   5  -3  -3 67.1007 45.7337  33
   5  -3  -3 64.0678 63.4863   3
  -5   3   3 48.5052 49.8549   8
  -5   3   2 35730.8 1170.59  35
   5  -3  -2 38900.0 1247.39  33
  -5   3   2 38610.1 1298.54   8
   5  -3  -2 37242.3 1220.81   3
  -5   3   1 3828.86 343.627  35
   5  -3  -1 3479.48 357.929  33
  -5   3   1 3560.36 292.838   6
   5  -3  -1 3623.63 373.605   3
  -5   3   0 68112.0 1526.64  35
   5  -3   0 67567.9 1714.97  33
  -5   3   0 69531.4 1487.98  28
  -5   3   0 64980.7 1461.74   6
   5  -3   1 67442.8 1755.82  33
  -5   3  -1 72523.9 1527.03  28
  -5   3  -1 68994.3 1544.51   6
   5  -3   2 7487.36 551.115  33
  -5   3  -2 8121.87 457.552  28
   5  -3   2 7808.47 505.752   1
   5  -3   2 8018.76 656.053   3
  -5   3  -2 8009.67 484.729   6
  -5   3  -3 82408.3 1514.99  32
  -5   3  -3 78848.7 1654.47  28
   5  -3   3 84181.6 1944.01   1
   5  -3   3 82762.0 2331.19   3
  -5   3  -3 82121.4 1774.30   6
  -5   3  -4 789.108 160.700   6
   5  -3   4 528.712 178.540   3
  -5   3  -4 658.950 122.092  32
   5  -3   4 627.171 174.964   5
   5  -3   4 704.748 172.994   1
  -5   3  -4 584.902 125.384  28
   5  -3   4 529.420 196.826   7
  -5   3  -5 1490.54 188.335  32
   5  -3   5 1455.22 249.724   5
  -5   3  -5 1250.96 189.379  28
   5  -3   5 1179.76 278.918   7
  -5   3  -5 1342.18 214.934   6
   5  -3   6 4.06197 20.5630  37
   5  -3   6 0.15282 22.1477  12
  -5   3  -6 29.6249 24.7597  32
  -5   3  -6 29.3121 14.4607  48
   5  -3   6 14.8457 19.4322  47
   5  -3   6 19.5449 70.2991   7
   5  -3   6 15.2174 23.0684  40
   5  -3   6 5.17473 18.4967  21
   5  -3   7 497.874 56.2394  12
   5  -3   7 506.763 59.4581  37
   5  -3   7 546.674 61.6586  36
   5  -3   7 548.752 60.6205  47
   5  -3   7 479.180 62.1575  40
   5  -3   7 576.566 66.3650  21
  -5   3  -7 498.548 47.5934  39
   5  -3   8 3846.81 156.506  12
   5  -3   8 3767.21 168.801  37
   5  -3   8 3798.89 163.370  47
  -5   3  -8 3947.94 129.854  48
   5  -3   8 3785.67 168.090  40
   5  -3   8 3539.84 135.722  26
   5  -3   8 3736.42 170.577  21
  -5   3  -8 3942.89 139.651  39
   5  -3   9 2133.18 116.411  12
  -5   3  -9 2115.02 92.3146  48
   5  -3   9 1944.75 100.010  26
   5  -3   9 2082.27 111.398  22
   5  -3   9 2052.21 123.531  40
   5  -3   9 2214.20 130.501  21
  -5   3  -9 2151.75 101.466  39
   5  -3   9 2287.06 127.514  47
   5  -3  10 5594.37 188.080  12
   5  -3  10 5824.10 203.997  47
  -5   3 -10 5708.55 169.117  45
   5  -3  10 5181.68 165.905  26
   5  -3  10 5411.16 183.164  22
   5  -3  10 5623.44 202.463  40
   5  -3  10 5661.95 206.160  21
  -5   3 -11 3416.96 121.472  45
   5  -3  11 3243.98 135.194  22
   5  -3  11 3429.10 151.303  40
   5  -3  11 3487.80 154.193  21
   5  -3  11 3246.80 123.976  26
   5  -3  11 3442.17 138.858  12
   5  -3  12 544.926 47.9356  26
   5  -3  12 611.889 55.1249  22
   5  -3  12 531.106 58.0103  40
   5  -3  12 615.859 61.1602  21
   5  -3  12 537.439 53.0557  12
  -5   3 -12 502.679 40.9090  45
   5  -3  13 1319.37 63.7517  26
   5  -3  13 1283.44 67.6320  22
   5  -3  13 1270.15 76.1178  40
   5  -3  14 74.2318 14.3719  26
   5  -3  14 75.4421 15.7911  24
  -5   2  13 5933.60 166.615  27
  -5   2  13 6384.29 146.357  24
  -5   2  12 503.001 56.9609  27
  -5   2  12 492.121 45.4975  24
  -5   2  11 1305.05 93.7976  27
  -5   2  11 1260.52 75.9198  24
  -5   2  10 9791.31 233.612  24
  -5   2  10 9479.92 271.331  27
  -5   2   9 10361.9 285.322  44
  -5   2   9 10419.1 287.104  27
  -5   2   9 10660.9 249.859  24
  -5   2   8 39688.5 654.205  27
  -5   2   8 41323.1 598.759  24
  -5   2   8 39483.5 634.040  41
  -5   2   8 40963.6 663.488  44
  -5   2   7 28847.8 511.100  27
  -5   2   7 28417.5 512.433  44
  -5   2   7 28620.2 456.600  24
  -5   2   7 27892.0 492.576  41
   5  -2  -6 3689.74 385.968  33
  -5   2   6 3454.62 143.914  27
  -5   2   6 3563.20 126.562  24
  -5   2   6 3327.48 140.067  41
  -5   2   6 3464.12 145.865  44
   5  -2  -5 3139.46 336.938   3
  -5   2   5 2860.35 354.546  35
   5  -2  -5 3232.18 345.248  33
  -5   2   5 2887.69 375.944   8
  -5   2   4 169.856 90.5937  35
   5  -2  -4 281.704 99.6331  33
   5  -2  -4 254.177 105.856   3
   5  -2  -3 44692.1 1322.21   3
  -5   2   3 46254.4 1349.56  35
   5  -2  -3 47210.5 1344.78  33
  -5   2   3 47843.0 1457.17   8
  -5   2   2 8314.04 511.200  35
   5  -2  -2 8377.62 535.660  33
  -5   2   2 9103.58 577.467   8
   5  -2  -2 8430.77 544.697   3
  -5   2   1 20440.9 765.325  35
   5  -2  -1 19862.7 838.632  33
  -5   2   1 19134.4 681.895   6
   5  -2  -1 21883.6 916.666   3
   5  -2   0 29005.6 1036.73  33
  -5   2   0 29156.1 904.451  28
  -5   2   0 30278.4 897.549   6
   5  -2   0 30570.6 1161.01   3
   5  -2   1 24673.9 981.024  33
  -5   2  -1 26837.4 749.386  32
  -5   2  -1 26352.0 846.758  28
  -5   2  -1 24840.7 837.106   6
   5  -2   1 28100.6 1177.40   3
   5  -2   2 9413.48 603.708  33
  -5   2  -2 8930.13 423.947  32
  -5   2  -2 9346.05 491.799  28
   5  -2   2 9872.13 724.828   3
  -5   2  -2 9266.24 511.769   6
  -5   2  -3 144.220 67.3213   6
   5  -2   3 141.534 122.528   3
  -5   2  -3 131.440 49.4307  32
  -5   2  -3 234.179 84.4793  28
  -5   2  -4 1176.02 163.177  32
  -5   2  -4 1055.50 173.231  28
   5  -2   4 1135.24 277.853   7
   5  -2   4 1119.42 247.844   3
  -5   2  -4 1015.92 180.205   6
  -5   2  -5 3144.62 281.145  32
  -5   2  -5 2928.30 292.722  28
   5  -2   5 3327.77 449.866   7
  -5   2  -5 3146.30 331.638   6
   5  -2   6 8374.03 227.929  12
   5  -2   6 8515.03 241.695  37
   5  -2   6 8703.44 247.995  36
  -5   2  -6 9069.78 500.927  32
  -5   2  -6 8366.24 453.029  30
  -5   2  -6 7963.52 494.437  28
  -5   2  -6 8541.16 195.837  48
   5  -2   6 8146.98 232.540  47
   5  -2   6 8141.45 687.812   7
   5  -2   6 8480.92 646.118   4
   5  -2   6 8506.24 249.334  40
   5  -2   6 8512.42 250.677  21
  -5   2  -6 8656.54 210.547  39
   5  -2   7 17224.5 358.076  12
   5  -2   7 17149.6 376.523  37
   5  -2   7 18028.7 386.612  36
  -5   2  -7 17435.9 310.235  48
   5  -2   7 17152.8 367.741  47
   5  -2   7 17226.1 384.047  40
   5  -2   7 17152.0 386.175  21
  -5   2  -7 17760.1 334.673  39
   5  -2   8 2554.33 125.636  12
   5  -2   8 2614.93 135.272  36
  -5   2  -8 2650.14 104.363  48
   5  -2   8 2746.83 135.076  47
   5  -2   8 2623.85 113.106  26
   5  -2   8 2558.27 124.177  22
   5  -2   8 2544.50 139.241  40
   5  -2   8 2647.95 143.614  21
  -5   2  -8 2737.80 116.268  39
  -5   2  -8 2868.39 120.548  45
   5  -2   9 51.7987 27.1607  12
   5  -2   9 5.09220 24.0855  36
   5  -2   9 41.9767 26.8200  47
   5  -2   9 9.55981 20.4596  26
  -5   2  -9 18.4304 16.6418  45
   5  -2   9 9.67917 23.9749  22
   5  -2   9 70.3359 30.5327  40
   5  -2   9 39.0001 26.0410  21
  -5   2  -9 10.4322 14.4588  39
   5  -2  10 1169.66 86.0283  36
   5  -2  10 1164.51 75.0944  26
  -5   2 -10 1277.29 76.8975  45
   5  -2  10 1189.06 83.4093  22
   5  -2  10 1298.34 97.7561  40
   5  -2  10 1209.95 96.9229  21
   5  -2  10 1180.65 83.7980  12
   5  -2  11 5269.26 157.697  26
  -5   2 -11 5320.37 154.231  45
   5  -2  11 5499.49 176.327  22
   5  -2  11 5677.16 198.563  40
   5  -2  11 5774.51 200.874  21
   5  -2  11 5700.44 178.849  12
   5  -2  12 634.113 49.1037  26
   5  -2  12 626.455 53.0827  22
   5  -2  12 672.601 61.7287  40
   5  -2  13 1030.82 52.9181  26
  -5   2 -13 987.117 51.3144  46
   5  -2  13 1009.14 57.7458  22
  -5   1  14 1228.24 63.3254  27
  -5   1  14 1270.81 54.8210  24
  -5   1  13 2835.05 118.574  27
  -5   1  13 2992.59 101.079  24
  -5   1  12 283.651 50.9954  27
  -5   1  12 153.547 27.0862  24
  -5   1  11 274.794 47.8036  27
  -5   1  11 310.250 42.1003  24
  -5   1  10 4872.18 188.310  27
  -5   1  10 5072.95 162.331  24
  -5   1   9 5365.79 198.400  27
  -5   1   9 5405.28 167.485  24
  -5   1   8 78.6154 26.6856  27
  -5   1   8 42.6128 25.0046  44
  -5   1   8 45.8931 19.6341  24
  -5   1   8 56.4403 22.1454  41
  -5   1   7 2897.91 136.921  44
  -5   1   7 2869.47 112.491  24
  -5   1   7 2839.94 132.600  27
  -5   1   7 2801.62 129.169  41
   5  -1  -6 6125.35 475.906   3
  -5   1   6 6231.32 533.928  35
   5  -1  -6 6654.16 486.545  33
  -5   1   6 7288.75 599.996   8
   5  -1  -5 7615.34 515.709   3
  -5   1   5 7998.11 574.872  35
   5  -1  -5 7681.38 512.381  33
  -5   1   5 8933.47 637.968   8
   5  -1  -4 4848.87 406.229   3
  -5   1   4 4973.91 424.564  35
   5  -1  -4 4872.81 396.289  33
  -5   1   4 5276.91 467.017   8
  -5   1   3 131.370 59.1284  35
   5  -1  -3 212.274 88.5270  33
   5  -1  -3 152.522 80.8625   3
  -5   1   3 208.349 88.1931   8
  -5   1   2-2.91479 26.7735  35
  -5   1   2 75.9057 53.9394  34
   5  -1  -2 28.7334 54.7873  33
   5  -1  -2 72.5702 44.7472   3
  -5   1   2 85.8880 69.7404   8
  -5   1   1 18884.1 689.893  35
   5  -1  -1 19414.4 801.966  33
  -5   1   1 20327.2 698.635   6
  -5   1   0 42112.8 1010.17  32
  -5   1   0 41285.7 1068.46   6
   5  -1   0 42699.8 1390.38   3
   5  -1   1 3036.16 324.474  33
  -5   1  -1 3065.42 252.651  32
  -5   1  -1 3491.41 298.085  28
   5  -1   1 3432.20 406.067   3
  -5   1  -1 2873.76 270.058   6
  -5   1  -2 171.036 67.9621   6
   5  -1   2 116.388 110.426   3
  -5   1  -2 307.852 93.6626  28
  -5   1  -3 16758.7 635.092  32
  -5   1  -3 15970.4 671.281  28
   5  -1   3 18962.7 1081.90   7
   5  -1   3 16395.2 938.717   3
  -5   1  -3 16703.2 717.439   6
  -5   1  -4 233.322 78.9762   6
  -5   1  -4 285.328 95.4277  32
  -5   1  -4 194.776 76.3364  28
   5  -1   4 347.655 143.863   7
  -5   1  -5 109.738 62.6530   6
  -5   1  -5 184.176 73.3117  32
  -5   1  -5 210.365 78.3756  28
   5  -1   5 236.700 100.122   4
   5  -1   5 263.329 133.500   7
   5  -1   6 3015.09 129.308  12
   5  -1   6 3122.83 138.956  37
   5  -1   6 3171.30 148.535  36
  -5   1  -6 2777.74 261.055  30
  -5   1  -6 3033.36 304.300  28
  -5   1  -6 3008.85 107.855  48
   5  -1   6 2894.85 129.281  47
  -5   1  -6 3023.47 117.591  45
   5  -1   6 2776.53 121.571  22
   5  -1   6 2887.53 140.683  40
   5  -1   6 3131.62 146.349  21
  -5   1  -6 3019.20 119.948  39
   5  -1   7 10311.5 262.888  12
   5  -1   7 10585.5 289.180  36
   5  -1   7 10223.4 263.674  47
  -5   1  -7 10781.6 245.600  45
   5  -1   7 9951.94 252.795  22
   5  -1   7 10390.0 285.605  40
   5  -1   7 10130.1 286.262  21
  -5   1  -7 9829.30 216.652  48
  -5   1  -7 10797.2 246.651  39
   5  -1   8 1572.75 107.447  36
   5  -1   8 1673.63 103.391  47
   5  -1   8 1577.67 85.7860  26
  -5   1  -8 1744.81 94.8952  45
   5  -1   8 1645.20 111.585  40
   5  -1   8 1720.43 114.563  21
  -5   1  -8 1730.72 93.2092  39
   5  -1   8 1623.89 97.5848  22
   5  -1   8 1635.59 99.6814  12
   5  -1   9 22431.0 458.021  36
  -5   1  -9 25468.6 423.434  45
   5  -1   9 23103.5 432.948  22
   5  -1   9 23536.1 471.399  40
   5  -1   9 24919.8 489.996  21
   5  -1   9 22484.0 396.910  26
   5  -1   9 23946.3 440.254  12
   5  -1  10 133.350 31.7105  12
   5  -1  10 77.4555 25.4833  36
   5  -1  10 115.312 28.4932  26
  -5   1 -10 168.414 30.3918  45
   5  -1  10 111.243 32.7549  22
   5  -1  10 162.406 45.5690  40
   5  -1  10 143.496 40.2454  21
   5  -1  11 8.75610 21.5988  36
   5  -1  11 12.9914 14.9469  26
  -5   1 -11-9.82569 12.3992  45
   5  -1  11-21.7846 23.1986  22
   5  -1  11 13.7376 22.0761  40
  -5   1 -12 185.594 27.4522  46
   5  -1  12 184.737 25.9142  26
   5  -1  12 212.944 30.9231  22
   5  -1  12 217.696 37.7979  40
   5  -1  13 444.530 32.2301  26
  -5   1 -13 400.414 30.5276  46
   5  -1  13 419.125 38.3052  24
   5  -1  13 464.761 37.4444  22
  -5   0  14 1007.68 62.0884  27
  -5   0  14 1085.36 53.3502  24
  -5   0  13 19.4369 17.0023  27
  -5   0  13 4.71390 13.9176  24
  -5   0  12 30.8276 19.8561  27
  -5   0  12 24.9337 16.2934  24
  -5   0  11 6976.66 225.411  27
  -5   0  11 6941.21 190.027  24
  -5   0  10 642.833 56.9456  24
  -5   0  10 603.687 65.0415  27
  -5   0   9 3804.51 161.485  27
  -5   0   9 3749.42 135.005  24
  -5   0   8 11774.7 250.887  24
  -5   0   8 11719.4 296.103  27
   5   0  -7 10809.0 637.115   3
  -5   0   7 10900.4 736.113  35
  -5   0   7 11960.8 796.966   8
  -5   0   7 12915.7 302.145  27
  -5   0   7 13321.4 261.742  24
  -5   0   7 13042.8 296.942  41
   5   0  -6 5347.82 431.088   3
  -5   0   6 5265.12 493.124   8
  -5   0   6 5608.81 496.596  35
  -5   0   5 326.382 113.017  35
   5   0  -5 324.115 96.0402  33
   5   0  -5 530.397 141.760   3
  -5   0   5 412.995 134.862   8
   5   0  -4 3737.20 343.887   3
  -5   0   4 4056.21 364.929  35
   5   0  -4 3544.46 320.286  33
  -5   0   4 4226.87 396.460   8
  -5   0   3 206.500 79.4731  35
  -5   0   3 223.233 73.8258  34
   5   0  -3 162.003 71.1476  33
  -5   0   3 125.983 73.0263   8
  -5   0   2 116.061 44.0769  35
  -5   0   2 153.219 63.9633  34
   5   0  -2 186.811 78.2783  33
   5   0  -2 81.5023 38.2361   3
  -5   0   2 170.653 66.8864   8
   5   0  -1 878.624 137.739   2
  -5   0   1 995.234 157.880  34
   5   0  -1 1154.20 186.424  33
   5   0  -1 1065.50 202.900   3
  -5   0   1 1111.59 174.267   8
  -5   0   1 1135.66 161.601   6
   5   0   0 5970.44 434.041  33
  -5   0   0 6505.35 390.558  32
  -5   0   0 6423.42 398.899   6
   5   0   0 5962.10 510.707   3
   5   0   0 6568.55 377.494   2
  -5   0  -1 14562.4 596.751  32
  -5   0  -1 13431.0 608.084   6
   5   0   1 13834.6 820.629   3
  -5   0  -2 46887.0 1158.72  32
   5   0   2 50021.3 1626.30   3
  -5   0  -2 45861.9 1237.08   6
  -5   0  -3 711.120 150.907   6
  -5   0  -3 842.168 149.397  32
   5   0   3 976.021 197.297   4
   5   0   3 889.147 231.655   7
  -5   0  -4 4546.22 352.510  32
   5   0   4 4445.19 434.375   4
   5   0   4 4486.31 500.416   7
  -5   0  -4 4806.57 405.631   6
  -5   0  -5 20256.3 790.259  32
   5   0   5 21797.9 1025.73   4
   5   0   5 20360.6 1079.14   7
  -5   0  -5 21951.8 925.244   6
   5   0   6 1313.93 98.5283  36
   5   0   6 1338.57 98.6081  16
  -5   0  -6 1223.52 75.6304  45
   5   0   6 1271.07 81.7732  22
   5   0   6 1298.79 93.9503  40
   5   0   6 1429.53 99.9480  21
  -5   0  -6 1329.80 79.1977  39
   5   0   6 1323.12 86.0219  12
   5   0   7-1.30848 22.3364  12
   5   0   7 9.58316 25.1315  36
  -5   0  -7-7.67794 19.9201  45
   5   0   7-1.67458 20.9188  22
   5   0   7 13.8573 21.2515  40
   5   0   7 45.7997 26.9067  21
  -5   0  -7-18.1305 21.5517  39
   5   0   8 43.2553 23.4251  12
   5   0   8 82.9412 36.5896  36
   5   0   8 41.8564 18.0273  26
  -5   0  -8 26.7329 17.1549  45
   5   0   8 26.9438 19.3475  22
   5   0   8 57.0429 31.5256  40
   5   0   8 90.2893 35.8037  21
  -5   0  -8 22.4312 19.1905  39
   5   0   9 2494.27 134.797  36
   5   0   9 2599.83 107.688  26
  -5   0  -9 2729.49 118.381  45
   5   0   9 2560.90 121.687  22
   5   0   9 2732.02 139.960  40
   5   0   9 2762.31 144.087  21
   5   0   9 2599.19 123.922  12
   5   0  10 2254.43 121.857  36
   5   0  10 2467.45 100.958  26
  -5   0 -10 2462.94 106.362  45
   5   0  10 2501.65 117.568  22
   5   0  10 2670.20 134.480  40
   5   0  10 2625.45 139.995  21
   5   0  11 926.555 70.4362  36
   5   0  11 1059.84 60.7651  26
  -5   0 -11 1145.70 70.0528  46
  -5   0 -11 969.044 59.1214  45
   5   0  11 1120.19 72.6108  22
   5   0  11 1099.27 81.8145  40
   5   0  12 15.9223 12.8060  36
   5   0  12 21.7782 11.6966  26
  -5   0 -12 17.7232 12.1775  46
   5   0  12 23.0090 15.7792  22
  -5   0 -13 8.48661 9.95783  38
   5   0  13-3.43829 11.1250  22
   5   0  13-12.4423 13.6548  24
  -5  -1  15 602.483 39.4622  27
  -5  -1  14 109.342 24.6020  27
  -5  -1  14 107.247 17.0330  24
  -5  -1  13 704.743 62.2422  27
  -5  -1  13 864.487 53.8439  24
  -5  -1  12 98.9919 30.8675  27
  -5  -1  12 80.5028 22.1535  24
  -5  -1  11 315.320 46.7803  27
  -5  -1  11 356.337 40.7100  24
  -5  -1  10 9663.91 273.550  27
  -5  -1  10 9832.34 227.208  24
  -5  -1  10 10362.8 219.969  23
  -5  -1   9 21592.1 434.410  27
  -5  -1   9 22590.1 380.496  24
  -5  -1   8 175.036 49.2647  27
  -5  -1   8 132.467 23.7083  24
  -5  -1   8 97.8104 28.4023  43
  -5  -1   8 129.395 27.0862  14
   5   1  -7 17514.9 791.678   3
  -5  -1   7 18429.3 944.234  35
  -5  -1   7 17918.7 940.090   8
   5   1  -6 4856.65 398.868   3
  -5  -1   6 5310.16 476.341  35
  -5  -1   6 5402.39 479.915   8
  -5  -1   5 348.276 109.601  35
   5   1  -5 580.250 137.923   3
  -5  -1   5 379.202 120.106   8
  -5  -1   4 47.0608 38.6979  35
  -5  -1   4 177.128 68.5171  34
   5   1  -4 261.090 100.256   3
  -5  -1   4 115.641 64.8012   8
   5   1  -3 6275.11 408.980   2
  -5  -1   3 6021.01 417.681  35
  -5  -1   3 6588.26 424.286  34
   5   1  -3 6492.44 458.644   3
  -5  -1   3 6381.16 439.421   8
  -5  -1   2 4147.33 321.335  35
  -5  -1   2 4769.96 361.819  34
   5   1  -2 4202.25 331.507  33
  -5  -1   2 4435.61 343.338   8
  -5  -1   2 4051.04 303.581   6
   5   1  -2 4359.11 390.281   3
   5   1  -2 4088.01 316.789   2
  -5  -1   1 33.6341 25.4569   6
  -5  -1   1 37.9556 39.3626  34
   5   1  -1 5.55574 43.1018   3
   5   1  -1 43.3340 47.6678   2
  -5  -1   0 355.381 100.904   6
  -5  -1   0 505.393 122.260  34
   5   1   0 339.602 106.621   3
   5   1   0 257.445 96.9534   2
  -5  -1  -1 32159.5 1011.29  34
  -5  -1  -1 31552.1 967.442  32
   5   1   1 30048.1 1048.94   4
  -5  -1  -1 29504.3 955.912   6
   5   1   1 30206.0 1197.02   3
  -5  -1  -2 4074.92 352.651  34
  -5  -1  -2 3617.97 316.341  32
   5   1   2 3807.75 377.769   4
   5   1   2 3828.99 456.799   7
  -5  -1  -2 3401.41 325.004   6
  -5  -1  -3 97.3109 51.4964   6
  -5  -1  -3 56.6137 56.1652  34
  -5  -1  -3 60.0605 35.0621  32
   5   1   3 67.8936 77.1245   7
  -5  -1  -4 2791.36 301.905  34
  -5  -1  -4 2642.46 283.493  32
   5   1   4 2405.36 328.766   4
   5   1   4 2339.19 346.880   7
  -5  -1  -4 2386.19 297.440   6
   5   1   5 33428.7 576.929  36
   5   1   5 33984.6 596.097  16
  -5  -1  -5 31815.4 496.951  45
   5   1   5 30612.7 505.017  22
   5   1   5 31503.9 538.265  40
   5   1   5 31510.2 545.814  21
  -5  -1  -5 32171.8 506.317  39
   5   1   5 33158.4 527.148  12
   5   1   6 17117.1 390.534  36
  -5  -1  -6 17132.6 332.347  45
   5   1   6 15628.7 329.753  22
   5   1   6 16221.6 360.086  40
   5   1   6 16541.8 369.722  21
  -5  -1  -6 16837.6 334.128  39
   5   1   6 16999.7 388.533  16
   5   1   6 16648.2 346.605  12
   5   1   7 6248.21 221.656  36
   5   1   7 6134.13 214.706  16
   5   1   7 6307.57 195.164  22
   5   1   7 6160.71 212.197  40
   5   1   7 6607.67 224.189  21
  -5  -1  -7 6041.66 186.497  39
  -5  -1  -7 6178.58 187.464  45
   5   1   7 6439.88 201.911  12
   5   1   8 12163.8 320.532  36
  -5  -1  -8 12726.9 283.662  45
   5   1   8 11947.6 282.786  22
   5   1   8 12064.0 310.090  40
   5   1   8 12845.1 325.484  21
   5   1   9 743.841 73.1317  36
  -5  -1  -9 844.252 65.7639  45
   5   1   9 803.805 68.5246  22
   5   1   9 767.136 74.6611  40
   5   1   9 819.091 79.9597  21
   5   1   9 777.898 56.0428  26
   5   1  10 623.849 63.4720  36
   5   1  10 581.058 45.8943  26
  -5  -1 -10 648.062 56.2899  46
  -5  -1 -10 495.605 46.1289  45
   5   1  10 581.949 56.0580  22
   5   1  10 597.421 61.6539  40
   5   1  11 226.958 34.8064  36
   5   1  11 260.012 29.3485  26
  -5  -1 -11 250.913 32.6739  46
   5   1  11 271.165 35.5371  22
  -5  -1 -12 769.323 47.9040  38
   5   1  12 792.347 40.5045  26
  -5  -1 -12 672.437 41.3764  46
   5   1  12 784.766 49.3311  22
  -5  -2  15 66.0561 15.3710  27
  -5  -2  14 274.743 35.4684  27
  -5  -2  13 90.3246 25.6693  27
  -5  -2  12 129.625 29.2005  27
  -5  -2  11 260.939 43.4467  27
  -5  -2  10 7215.03 218.380  14
  -5  -2  10 7745.44 234.289  27
  -5  -2   9-13.2404 22.6195  27
  -5  -2   9-5.95483 17.4933  43
  -5  -2   9 29.9249 23.6628  14
  -5  -2   8 31006.8 521.518  27
  -5  -2   8 29514.2 512.695  43
  -5  -2   8 29346.3 512.792  14
   5   2  -7 2449.81 290.011   2
  -5  -2   7 2318.13 326.107  35
  -5  -2   7 2191.13 312.925   8
   5   2  -6 2926.90 311.529   2
  -5  -2   6 2961.16 348.249  35
  -5  -2   6 3079.90 347.792   8
  -5  -2   5 381.101 126.160  35
   5   2  -5 432.873 113.731   2
  -5  -2   5 527.912 133.208   8
  -5  -2   4 4313.29 376.525  35
  -5  -2   4 4854.48 384.734  34
   5   2  -4 4336.93 364.656   3
   5   2  -4 4442.68 364.203   2
  -5  -2   3 15797.2 689.898  35
  -5  -2   3 15487.4 705.149  34
   5   2  -3 16584.1 750.444   3
   5   2  -3 16274.9 704.140   2
   5   2  -2 20847.8 776.106   4
  -5  -2   2 20533.0 819.336  34
   5   2  -2 21365.9 900.429   3
   5   2  -2 21466.5 832.711   2
  -5  -2   1 1425.10 212.273  34
   5   2  -1 1317.10 200.142   4
   5   2  -1 1520.99 244.141   3
   5   2  -1 1802.78 269.172   2
  -5  -2   0 501.289 124.890  34
   5   2   0 609.618 165.421   3
   5   2   0 696.079 240.424   2
   5   2   0 608.555 141.927   4
  -5  -2  -1 1250.01 203.358  34
   5   2   1 1092.57 201.171   4
   5   2   1 1487.45 274.981   7
  -5  -2  -2 5204.58 416.914  34
  -5  -2  -2 4899.22 401.873  32
   5   2   2 4994.56 441.638   4
   5   2   2 5445.29 508.260   7
  -5  -2  -3 363.486 117.793  34
  -5  -2  -3 358.085 110.093  32
   5   2   3 254.827 108.820   4
   5   2   3 409.005 157.605   7
   5   2   4 36395.4 635.163  16
   5   2   4 35178.7 593.439  36
   5   2   4 38011.3 673.377  49
  -5  -2  -4 33504.7 522.298  45
   5   2   4 30918.2 1267.66   7
   5   2   4 33248.9 525.968  22
   5   2   4 32783.1 552.172  21
  -5  -2  -4 33763.5 534.408  39
   5   2   4 36633.7 554.989  12
   5   2   5 11914.3 311.478  36
   5   2   5 12453.8 331.530  16
  -5  -2  -5 11670.9 263.909  45
   5   2   5 11356.7 264.042  22
   5   2   5 11703.4 283.719  40
   5   2   5 11236.5 284.404  21
  -5  -2  -5 11674.7 271.080  39
   5   2   6 297.648 51.3518  36
   5   2   6 213.613 49.1200  16
  -5  -2  -6 260.872 37.4095  45
   5   2   6 307.860 42.4404  22
   5   2   6 244.498 42.3446  40
   5   2   6 322.530 48.9835  21
  -5  -2  -6 255.124 37.5841  39
   5   2   7 1734.79 116.149  36
  -5  -2  -7 1941.20 103.592  45
   5   2   7 1824.92 101.256  22
   5   2   7 1773.16 106.963  40
   5   2   7 1815.77 114.362  16
   5   2   7 2056.88 119.689  21
  -5  -2  -7 1954.28 101.274  39
   5   2   8 60.3571 31.2378  16
  -5  -2  -8 27.3615 25.4066  46
  -5  -2  -8 4.07830 19.2508  45
   5   2   8-5.11982 20.1384  22
   5   2   8 17.3354 22.8729  40
   5   2   9 7767.20 239.373  36
   5   2   9 7851.18 182.245  26
  -5  -2  -9 8488.15 217.585  46
  -5  -2  -9 7679.25 203.938  45
   5   2   9 8256.22 215.926  22
   5   2   9 7753.67 223.110  40
   5   2  10 373.082 47.6041  36
   5   2  10 387.528 35.7359  26
  -5  -2 -10 370.806 37.9253  45
   5   2  10 431.521 47.7758  22
  -5  -2 -10 375.286 41.7452  46
  -5  -2 -11 1003.24 58.0266  38
   5   2  11 927.649 62.5080  36
   5   2  11 1022.17 48.1720  26
  -5  -2 -11 935.464 54.3887  46
   5   2  11 854.707 53.8932  24
   5   2  11 990.478 59.9047  22
  -5  -2 -12 24.9481 11.1213  38
  -5  -3  15-8.44476 12.6838  27
  -5  -3  14 137.703 24.5643  27
  -5  -3  13 14.7870 16.4801  27
  -5  -3  12 1142.82 83.5003  27
  -5  -3  11 5236.69 185.903  27
  -5  -3  11 4582.91 171.535  14
  -5  -3  10 7839.27 232.038  27
  -5  -3  10 6984.09 222.571  14
  -5  -3   9 7316.25 221.630  27
  -5  -3   9 7355.57 226.731  14
  -5  -3   8 20698.4 396.594  27
  -5  -3   8 20312.4 405.804  43
  -5  -3   8 20850.4 412.048  14
  -5  -3   7 727.073 185.949  35
   5   3  -7 708.481 167.928   2
  -5  -3   7 667.274 59.3086  27
  -5  -3   7 730.188 66.2443  43
  -5  -3   7 731.778 66.5262  14
  -5  -3   6 12155.9 716.302  35
   5   3  -6 12513.7 695.850   2
  -5  -3   5 7075.04 515.292  35
  -5  -3   5 8083.20 537.594  34
   5   3  -5 8444.91 558.165   2
  -5  -3   4 10020.3 597.045  34
   5   3  -4 10586.6 633.863   2
  -5  -3   3 5171.10 427.188  34
   5   3  -3 4954.29 445.669   2
  -5  -3   2 812.463 172.969  34
   5   3  -2 709.780 199.397   2
  -5  -3   1 1092.92 197.138  34
   5   3  -1 964.251 281.223   2
   5   3  -1 1043.92 180.706   4
  -5  -3   0 4761.16 410.532  34
   5   3   0 4485.73 870.164   2
   5   3   0 4437.05 393.299   4
  -5  -3  -1 3094.33 332.736  34
   5   3   1 2720.92 323.470   4
  -5  -3  -2 6907.05 503.183  34
   5   3   2 6872.10 534.877   4
   5   3   3 4251.15 166.266  36
  -5  -3  -3 4026.18 143.463  45
   5   3   3 4349.44 189.087  16
   5   3   3 4104.25 140.331  22
  -5  -3  -3 3938.74 146.647  39
   5   3   4 917.784 80.0671  36
   5   3   4 1017.14 95.9360  49
   5   3   4 1046.42 93.4368  16
  -5  -3  -4 1058.92 72.9948  46
  -5  -3  -4 1019.32 73.4695  45
   5   3   4 977.326 69.8176  22
   5   3   4 1068.69 78.4584  21
  -5  -3  -4 947.961 72.0893  39
   5   3   5 18752.7 409.965  36
   5   3   5 18958.4 427.731  16
  -5  -3  -5 19666.9 368.469  46
  -5  -3  -5 18444.9 363.431  45
   5   3   5 18876.3 362.957  22
   5   3   5 18478.0 381.480  21
  -5  -3  -5 19103.6 372.653  39
   5   3   6 7.18000 27.3723  36
   5   3   6 28.1981 26.5864  49
   5   3   6 43.7418 36.2868  16
  -5  -3  -6 15.4904 16.4410  46
  -5  -3  -6-12.1394 17.4841  45
   5   3   6 66.5898 24.7939  22
   5   3   6 7.92987 20.8168  21
   5   3   6-10.9058 23.7016  40
  -5  -3  -6 3.63508 15.4760  39
   5   3   7 820.997 81.8430  36
   5   3   7 811.309 77.1604  16
  -5  -3  -7 912.328 71.0982  46
  -5  -3  -7 882.320 70.4218  45
   5   3   7 862.846 68.0884  22
   5   3   7 836.782 69.2805  40
  -5  -3  -7 762.643 62.8770  39
   5   3   8 3171.40 149.435  36
   5   3   8 2959.71 133.654  16
  -5  -3  -8 3163.60 130.142  46
  -5  -3  -8 3114.46 127.938  45
   5   3   8 3229.75 130.506  22
   5   3   8 3112.22 131.933  40
  -5  -3  -9 34.8597 20.1863  38
   5   3   9 20.0244 22.2282  36
   5   3   9 15.4323 13.6022  26
  -5  -3  -9-0.87416 14.9480  46
  -5  -3  -9 1.68255 14.3099  45
   5   3   9-3.34616 17.8080  22
   5   3   9 25.1110 20.0507  16
  -5  -3 -10 1818.75 80.6849  38
   5   3  10 1771.31 91.3963  36
   5   3  10 1788.31 64.9336  26
  -5  -3 -10 1690.09 78.0374  46
   5   3  10 1509.25 69.9619  24
  -5  -3 -11 465.036 35.4578  38
  -5  -3 -11 442.983 32.2454  46
  -5  -4  15 227.843 27.3542  27
  -5  -4  14 377.460 40.3944  27
  -5  -4  13 1042.41 72.6074  27
  -5  -4  13 970.418 69.4400  14
  -5  -4  12 2520.30 122.440  27
  -5  -4  12 2351.75 117.408  14
  -5  -4  11 3133.35 138.988  27
  -5  -4  11 2901.75 139.632  14
  -5  -4  10 37603.2 603.396  27
  -5  -4  10 37105.3 621.100  14
  -5  -4   9 559.905 57.1148  27
  -5  -4   9 150.813 38.6644  14
  -5  -4   8 15214.9 326.394  27
  -5  -4   8 15596.1 349.815  14
  -5  -4   7 1951.82 101.469  27
  -5  -4   7 2067.68 102.253  15
  -5  -4   7 1970.63 110.448  14
  -5  -4   6 7264.47 543.606  34
   5   4  -6 7797.89 567.657  31
  -5  -4   6 7208.79 202.860  27
  -5  -4   6 7394.41 215.644  43
  -5  -4   6 7203.97 216.425  14
   5   4  -6 7216.57 591.373   2
  -5  -4   5 13766.0 755.604  34
   5   4  -5 14056.7 755.802  31
   5   4  -5 14867.3 869.071   2
  -5  -4   4 2933.54 339.829  34
   5   4  -4 2073.13 286.112  31
   5   4  -4 2879.71 402.301   2
  -5  -4   3 1134.98 208.574  34
   5   4  -3 977.505 253.936   2
   5   4  -3 1033.80 199.789  31
  -5  -4   2 1723.64 262.492  34
   5   4  -2 1691.53 432.813   2
   5   4  -2 1881.59 290.305  31
  -5  -4   1 4725.80 430.842  34
   5   4  -1 3809.44 879.127   2
  -5  -4   0 619.663 153.107  34
   5   4   0 773.551 656.297   2
   5   4   0 616.360 156.142   4
  -5  -4  -1 20405.0 920.458  34
  -5  -4  -1 21430.2 390.228  15
   5   4   1 21185.7 442.859  16
  -5  -4  -1 20969.9 380.706  45
  -5  -4  -1 19993.5 381.057  39
   5   4   1 20623.5 934.123   4
   5   4   2 687.058 64.2787  36
   5   4   2 1062.40 138.537  49
   5   4   2 845.882 85.3646  16
  -5  -4  -2 849.335 65.8292  15
  -5  -4  -2 832.960 64.0397  46
  -5  -4  -2 862.323 66.8978  45
  -5  -4  -2 957.825 71.8147  39
   5   4   3 36.1928 21.9931  36
   5   4   3 18.1792 30.0950  16
  -5  -4  -3 12.1462 15.1438  46
  -5  -4  -3 6.29106 16.9874  45
   5   4   3 15.2188 15.5806  22
   5   4   3 60.0991 39.8700  49
  -5  -4  -3 19.0811 17.4301  39
   5   4   4 25598.1 492.597  36
   5   4   4 26548.0 521.727  49
   5   4   4 26858.7 531.021  16
  -5  -4  -4 27443.6 462.818  46
  -5  -4  -4 26715.1 468.686  45
   5   4   4 28024.3 460.527  22
  -5  -4  -4 25623.1 464.870  39
   5   4   5 97.2887 33.5965  36
   5   4   5 67.4564 39.6696  16
  -5  -4  -5 34.8761 18.6430  46
  -5  -4  -5 46.7289 24.4714  45
   5   4   5 76.5951 28.0079  22
   5   4   5 61.3454 31.5978  49
  -5  -4  -5 75.8254 27.3380  39
   5   4   6 2146.09 123.300  36
   5   4   6 1876.32 111.727  49
   5   4   6 2075.46 122.888  16
  -5  -4  -6 2305.27 112.043  46
  -5  -4  -6 2092.90 110.185  45
   5   4   6 2168.51 107.105  22
  -5  -4  -6 2106.15 106.706  39
  -5  -4  -7 8726.09 218.104  38
   5   4   7 8370.55 248.172  36
   5   4   7 7884.04 236.089  16
  -5  -4  -7 8838.20 225.945  46
  -5  -4  -7 8222.18 220.023  45
   5   4   7 8783.52 221.155  22
  -5  -4  -8 2166.25 97.6561  38
   5   4   8 2086.98 111.336  36
   5   4   8 1924.37 102.178  16
  -5  -4  -8 2058.46 98.4470  46
  -5  -4  -8 1932.09 93.6334  45
   5   4   8 2129.26 97.4880  22
  -5  -4  -9 396.430 39.3861  38
   5   4   9 410.995 46.4255  36
   5   4   9 313.343 35.9919  16
  -5  -4  -9 337.779 34.0892  45
  -5  -4  -9 387.736 39.7483  46
  -5  -4 -10 38.7326 13.4956  38
  -5  -4 -10 48.1808 14.2427  46
  -5  -5  15 908.905 50.9367  27
  -5  -5  14 1516.40 78.1582  27
  -5  -5  14 1232.55 70.3533  14
  -5  -5  13 225.642 36.9379  27
  -5  -5  13 232.605 39.3035  14
  -5  -5  12 664.254 61.3609  27
  -5  -5  12 592.572 61.2399  14
  -5  -5  11 11096.3 272.314  27
  -5  -5  11 10865.9 284.614  14
  -5  -5  10 694.899 72.1846  14
  -5  -5  10 459.424 52.4553  27
  -5  -5   9 37472.7 592.671  27
  -5  -5   9 36863.4 619.171  14
  -5  -5   8 12353.9 285.458  27
  -5  -5   8 11937.9 302.131  14
  -5  -5   7 13556.8 298.831  27
  -5  -5   7 13389.1 292.926  15
  -5  -5   7 13043.2 312.605  14
  -5  -5   6 8329.33 225.574  27
  -5  -5   6 7968.45 217.387  15
  -5  -5   6 7777.42 227.166  14
  -5  -5   5 3083.01 127.952  27
  -5  -5   5 2819.39 123.972  15
  -5  -5   5 2757.74 126.806  14
  -5  -5   4 2646.11 343.526  34
   5   5  -4 1843.33 452.087   2
   5   5  -4 2382.30 377.415  31
  -5  -5   4 2651.80 119.342  15
  -5  -5   3 13857.2 792.835  34
   5   5  -3 13404.2 932.098  31
  -5  -5   3 13605.5 302.199  48
  -5  -5   3 14759.9 314.230  15
  -5  -5   3 14036.2 300.730  39
  -5  -5   2 307.634 39.0260  48
   5   5  -2 349.136 53.6408  16
  -5  -5   2 308.375 43.1481  15
  -5  -5   2 294.162 38.0480  39
   5   5  -1 10894.6 287.150  16
  -5  -5   1 11513.3 276.248  15
  -5  -5   1 11051.3 260.877  45
  -5  -5   1 10432.9 251.317  48
  -5  -5   1 10771.4 262.425  39
   5   5   0 21884.4 447.895  16
  -5  -5   0 21983.7 403.985  45
  -5  -5   0 21293.4 407.470  39
   5   5   1 9632.08 279.442  16
  -5  -5  -1 9604.90 248.020  15
  -5  -5  -1 9623.94 245.860  45
  -5  -5  -1 9711.13 239.359  46
  -5  -5  -1 9267.93 246.606  39
  -5  -5  -2 2027.06 102.073  38
   5   5   2 1737.11 102.656  36
   5   5   2 2182.32 154.165  49
  -5  -5  -2 1890.69 102.217  15
  -5  -5  -2 2111.93 106.275  46
  -5  -5  -2 2136.32 110.717  45
  -5  -5  -2 2094.86 111.279  39
   5   5   2 1886.98 122.587  16
  -5  -5  -3 17741.9 344.485  38
   5   5   3 16116.1 355.846  36
   5   5   3 17319.4 396.680  16
  -5  -5  -3 17059.1 344.862  46
  -5  -5  -3 16141.2 345.816  45
   5   5   3 17528.1 419.866  49
   5   5   3 17741.9 335.572  22
  -5  -5  -3 16042.8 348.099  39
  -5  -5  -4 557.614 56.3555  38
   5   5   4 482.862 59.2511  36
   5   5   4 576.644 69.4854  16
  -5  -5  -4 572.559 58.2513  46
  -5  -5  -4 496.497 56.1438  45
   5   5   4 596.997 57.3793  22
  -5  -5  -4 562.540 59.0875  39
   5   5   4 591.104 68.8216  49
  -5  -5  -5 2265.70 109.057  38
   5   5   5 2148.59 118.903  36
   5   5   5 2121.77 120.038  49
  -5  -5  -5 2365.88 112.875  46
  -5  -5  -5 2234.86 113.147  45
   5   5   5 2481.47 113.188  22
  -5  -5  -5 2192.51 110.455  39
   5   5   5 2229.97 128.030  16
  -5  -5  -6 5648.00 170.162  38
   5   5   6 5494.46 187.724  36
   5   5   6 5351.51 193.193  16
   5   5   6 5089.45 179.808  49
  -5  -5  -6 5604.59 175.195  46
  -5  -5  -6 5570.01 177.406  45
  -5  -5  -6 5135.43 161.446  39
  -5  -5  -7 62.2722 20.3282  38
   5   5   7 61.6867 24.7196  36
   5   5   7 57.2641 21.9962  49
   5   5   7 88.9743 29.2422  16
  -5  -5  -7 43.6699 20.0210  46
  -5  -5  -7 64.1290 21.3981  45
  -5  -5  -8 970.579 59.5482  38
   5   5   8 1037.79 69.1124  36
   5   5   8 899.494 63.0239  16
   5   5   8 953.787 61.7245  49
  -5  -5  -8 992.612 62.8591  46
  -5  -5  -8 911.400 56.7607  45
  -5  -5  -9 230.208 26.2146  38
   5   5   9 226.490 25.9288  16
  -5  -5  -9 240.040 26.6482  46
  -5  -6  15 1521.90 63.9864  14
  -5  -6  14 671.622 53.3881  14
  -5  -6  13 4760.08 151.530  27
  -5  -6  13 4268.90 151.433  14
  -5  -6  12 3291.56 133.232  27
  -5  -6  12 2902.43 134.869  14
  -5  -6  11 898.315 76.5483  27
  -5  -6  11 797.177 74.7349  14
  -5  -6  10 19692.7 386.026  27
  -5  -6  10 18464.5 393.877  14
  -5  -6   9 18373.2 367.118  27
  -5  -6   9 18206.9 390.625  14
  -5  -6   8 9390.78 247.761  27
  -5  -6   8 8948.32 256.649  14
  -5  -6   7 151.962 30.1615  17
  -5  -6   7 234.340 38.2290  15
  -5  -6   7 262.509 42.6464  14
  -5  -6   7 253.753 43.8128  27
  -5  -6   6 1276.13 85.7110  15
  -5  -6   6 1276.58 88.3196  14
  -5  -6   5 10532.1 264.848  15
  -5  -6   5 10569.7 264.550  14
  -5  -6   4 569.362 57.8539  15
  -5  -6   4 576.619 55.5203  14
  -5  -6   4 537.347 54.9535  39
  -5  -6   3 80.1589 26.0836  15
  -5  -6   3 70.9497 22.7954  39
   5   6  -2 1365.86 94.2222  16
  -5  -6   2 1411.87 88.6138  45
  -5  -6   2 1308.72 88.7581  15
  -5  -6   2 1315.45 87.2237  39
   5   6  -1 7832.33 238.887  16
  -5  -6   1 8889.49 242.089  15
  -5  -6   1 8100.50 228.862  45
   5   6  -1 8272.69 390.619  49
  -5  -6   1 8057.06 230.682  39
  -5  -6   0 7073.88 215.361  15
  -5  -6   0 7105.83 202.384  46
  -5  -6   0 6975.42 210.606  45
   5   6   0 6695.65 224.542  16
  -5  -6   0 6464.02 205.956  39
  -5  -6  -1 6726.94 196.422  38
   5   6   1 7376.91 283.529  49
   5   6   1 6641.17 224.441  16
  -5  -6  -1 6640.42 206.885  45
  -5  -6  -1 6953.43 211.212  15
  -5  -6  -1 7002.07 203.055  46
  -5  -6  -1 6598.55 208.478  39
  -5  -6  -2 1457.40 87.4291  38
   5   6   2 1114.85 80.6744  36
   5   6   2 1208.73 105.973  49
   5   6   2 1104.04 90.5364  16
  -5  -6  -2 1169.07 81.1512  46
  -5  -6  -2 1166.28 85.3102  45
  -5  -6  -2 1225.94 87.8422  39
  -5  -6  -3 4290.25 153.839  38
   5   6   3 3921.22 154.668  36
   5   6   3 4182.68 180.577  49
   5   6   3 4131.01 173.656  16
  -5  -6  -3 4446.56 158.551  46
  -5  -6  -3 4223.81 159.323  45
  -5  -6  -3 4549.92 167.050  39
  -5  -6  -4 4905.94 162.392  38
   5   6   4 4657.47 167.594  36
   5   6   4 4692.92 183.269  16
   5   6   4 4563.75 178.951  49
  -5  -6  -4 4995.61 167.734  46
  -5  -6  -4 4981.56 173.025  45
  -5  -6  -4 4790.03 166.366  39
  -5  -6  -5 1378.54 80.8492  38
   5   6   5 1490.94 90.0904  36
   5   6   5 1532.85 99.3263  16
   5   6   5 1409.63 95.4201  49
  -5  -6  -5 1449.51 85.4162  46
  -5  -6  -5 1435.94 86.9066  45
  -5  -6  -5 1356.06 80.9653  39
  -5  -6  -6-3.82746 18.2647  38
   5   6   6 51.8801 20.7819  36
   5   6   6 2.12797 19.4781  49
   5   6   6-30.4302 27.1460  16
  -5  -6  -6-1.51555 18.8750  46
  -5  -6  -6-12.4429 17.3628  45
  -5  -6  -7 508.397 42.8133  38
   5   6   7 580.775 49.1052  36
   5   6   7 532.418 48.8968  16
   5   6   7 540.305 49.0285  49
  -5  -6  -7 500.300 42.5441  45
  -5  -6  -7 590.560 48.2597  46
  -5  -6  -8 5.10108 12.6326  38
   5   6   8 17.6911 10.9750  49
   5   6   8 17.9131 12.6964  16
  -5  -6  -8 27.5742 12.6424  46
  -5  -7  14 2612.66 101.212  14
  -5  -7  13 10106.7 236.809  14
  -5  -7  12 718.476 67.2066  14
  -5  -7  11 939.121 79.1483  14
  -5  -7  10 30834.0 531.399  14
  -5  -7   9 1813.05 108.130  14
  -5  -7   8 15392.7 328.515  17
  -5  -7   8 15240.1 316.650  15
  -5  -7   8 15297.2 341.905  14
  -5  -7   7 6544.43 204.522  17
  -5  -7   7 6974.58 204.985  15
  -5  -7   7 6689.18 210.264  14
  -5  -7   6 7048.78 214.179  17
  -5  -7   6 7061.58 211.635  15
  -5  -7   6 6993.37 210.046  14
  -5  -7   5 5780.75 191.911  17
  -5  -7   5 5727.07 190.974  15
  -5  -7   5 5770.72 183.814  14
  -5  -7   4 5829.36 194.852  15
  -5  -7   4 5435.96 185.135  39
  -5  -7   3 49.3162 27.0608  15
  -5  -7   3 17.2682 17.1663  39
  -5  -7   3 11.9198 16.1330  45
   5   7  -2 285.082 43.7736  16
  -5  -7   2 258.143 40.1459  45
  -5  -7   2 219.099 39.7753  39
  -5  -7   2 300.166 50.1722  15
   5   7  -1 15242.2 344.485  16
  -5  -7   1 16193.3 356.153  15
  -5  -7   1 15754.9 343.547  45
  -5  -7   1 15654.0 345.014  39
  -5  -7   0 439.461 53.2519  45
  -5  -7   0 440.665 49.7574  17
   5   7   0 455.886 56.0908  16
  -5  -7   0 484.837 51.6832  46
  -5  -7   0 480.169 56.1670  39
   5   7   0 510.456 74.4943  49
  -5  -7  -1 624.702 57.8195  38
  -5  -7  -1 562.800 57.0045  17
   5   7   1 551.593 62.1485  16
  -5  -7  -1 576.393 58.0776  46
  -5  -7  -1 674.227 66.3028  45
   5   7   1 613.731 63.3516  44
   5   7   1 529.593 66.8371  49
  -5  -7  -1 597.074 61.2854  39
  -5  -7  -2 7615.44 208.862  38
   5   7   2 7481.13 227.253  16
   5   7   2 8079.81 246.515  49
  -5  -7  -2 7688.40 211.585  46
  -5  -7  -2 7480.68 217.458  45
  -5  -7  -2 7454.19 217.760  39
  -5  -7  -3 3495.60 133.732  38
   5   7   3 3386.03 145.341  16
   5   7   3 3723.22 156.599  49
  -5  -7  -3 3561.12 138.143  46
  -5  -7  -3 3587.73 142.235  45
   5   7   3 3737.81 146.638  42
  -5  -7  -3 3594.23 141.846  39
  -5  -7  -4 1442.16 80.6772  38
   5   7   4 1508.33 82.5012  36
  -5  -7  -4 1381.36 75.3759  11
   5   7   4 1368.75 88.7993  16
   5   7   4 1456.91 92.1259  49
  -5  -7  -4 1542.67 85.3799  46
  -5  -7  -4 1416.56 85.1530  45
   5   7   4 1429.65 82.5234  42
  -5  -7  -5 562.829 47.7409  38
   5   7   5 588.530 49.6860  36
   5   7   5 591.340 54.9804  16
   5   7   5 579.804 55.0081  49
  -5  -7  -5 537.264 48.0193  46
  -5  -7  -5 571.649 51.0993  45
  -5  -7  -6 928.279 55.1744  38
   5   7   6 1084.02 65.4146  16
   5   7   6 912.489 61.9804  49
  -5  -7  -6 941.656 57.7920  46
  -5  -7  -6 895.125 55.9602  45
  -5  -7  -7-6.95454 10.5832  38
   5   7   7 26.0164 13.3414  49
   5   7   7 38.4652 14.6810  16
  -5  -7  -7 37.3954 13.6718  46
  -5  -8  14 7054.45 163.683  14
  -5  -8  13 40.6955 26.5726  14
  -5  -8  12 81.7022 28.5695  14
  -5  -8  11 29.0655 25.0100  14
  -5  -8  10 31.1209 23.5530  14
  -5  -8   9 6161.86 185.507  17
  -5  -8   9 6526.41 200.943  14
  -5  -8   8 3817.94 149.684  17
  -5  -8   8 3708.73 148.831  14
  -5  -8   7 11421.7 280.570  17
  -5  -8   7 11317.5 269.961  14
  -5  -8   6 774.165 65.6782  11
  -5  -8   6 785.783 68.6984  17
  -5  -8   6 765.627 68.6439  15
  -5  -8   6 733.839 60.0959  14
   5   8  -5 2340.22 190.344  49
  -5  -8   5 2464.98 120.304  11
  -5  -8   5 2458.01 122.700  17
  -5  -8   5 2492.37 122.608  15
  -5  -8   4 12067.3 290.858  17
   5   8  -4 12452.2 402.458  49
  -5  -8   4 12328.9 287.275  45
  -5  -8   3 583.096 58.8354  17
  -5  -8   3 563.394 57.9821  45
   5   8  -3 571.283 79.5588  49
  -5  -8   2-7.86381 21.9551  17
   5   8  -2 43.2968 36.1883  49
  -5  -8   2-6.59192 18.9388  45
  -5  -8   1 941.493 72.2155  17
   5   8  -1 901.947 70.0808  16
   5   8  -1 1008.78 90.9082  49
  -5  -8   1 964.905 70.1353  46
  -5  -8   1 970.457 76.1407  45
  -5  -8   0 556.573 53.4403  17
   5   8   0 539.331 56.0622  16
   5   8   0 638.491 68.2972  49
  -5  -8   0 530.934 53.4473  46
  -5  -8   0 509.083 56.4241  45
   5   8   0 577.476 60.5779  44
  -5  -8   0 548.986 52.9543  38
  -5  -8  -1 754.435 60.9787  38
  -5  -8  -1 818.595 67.0291  11
  -5  -8  -1 789.322 59.7868  17
   5   8   1 759.019 64.4702  16
   5   8   1 870.764 75.0567  49
  -5  -8  -1 736.926 61.9941  46
  -5  -8  -1 856.685 71.1236  45
   5   8   1 833.691 65.4727  44
   5   8   1 874.959 75.2658  42
  -5  -8  -2 8788.20 216.194  38
  -5  -8  -2 9087.01 222.199  11
   5   8   2 8760.33 225.645  16
   5   8   2 9147.57 242.231  49
  -5  -8  -2 9007.75 222.537  46
  -5  -8  -2 8994.55 230.142  45
   5   8   2 9140.42 229.609  42
  -5  -8  -3 3514.28 123.036  38
  -5  -8  -3 3636.25 122.206  11
   5   8   3 3680.70 135.030  16
   5   8   3 3738.63 140.807  49
  -5  -8  -3 3540.90 127.116  46
  -5  -8  -3 3781.20 133.321  45
   5   8   3 3686.12 129.226  42
  -5  -8  -4 1379.89 69.8648  38
   5   8   4 1406.86 76.3446  16
   5   8   4 1517.64 83.5072  49
  -5  -8  -4 1555.44 76.4142  46
  -5  -8  -4 1580.57 79.3630  45
   5   8   4 1440.91 70.1357  42
   5   8   5 2864.61 99.1590  16
   5   8   5 2827.87 102.987  49
  -5  -8  -5 2731.66 94.5476  46
  -5  -8  -5 2802.03 94.4347  45
  -5  -8  -5 2717.95 90.7963  38
  -5  -9  14 1730.35 67.1925  14
  -5  -9  13 22.6250 16.2414  14
  -5  -9  12 119.100 27.8082  14
  -5  -9  11 5207.09 157.702  14
  -5  -9  10 76.4026 28.9024  14
  -5  -9   9-5.16879 17.8080  17
  -5  -9   9 41.4089 21.7182  14
  -5  -9   8 455.419 50.8037  17
  -5  -9   8 356.368 41.1800  14
  -5  -9   7-17.3267 20.1126  11
  -5  -9   7-3.03235 23.7472  17
  -5  -9   6 1085.85 75.3128  11
  -5  -9   6 1075.89 78.3357  17
   5   9  -6 911.031 60.8136  42
  -5  -9   5 10.1841 19.6912  11
  -5  -9   5 35.9029 22.3508  17
   5   9  -5 47.1395 30.8627  49
   5   9  -5 20.7177 16.8719  42
  -5  -9   4 705.268 62.6771  11
  -5  -9   4 762.914 65.0546  17
  -5  -9   4 735.734 62.8090  45
   5   9  -4 677.929 61.4154  42
   5   9  -4 734.973 71.1264  49
  -5  -9   3 34.5496 17.9222  11
  -5  -9   3 67.0269 24.4350  17
   5   9  -3 18.9507 22.7707  49
  -5  -9   3 89.9769 26.7411  45
   5   9  -3 27.2734 20.6592  42
  -5  -9   2 1248.55 82.3409  11
  -5  -9   2 1198.28 78.5751  17
   5   9  -2 1165.54 82.8305  49
  -5  -9   2 1269.03 82.3551  45
   5   9  -2 1470.87 99.4136  44
   5   9  -2 1349.82 87.3587  42
  -5  -9   1 55.2524 22.5002  11
  -5  -9   1 41.5632 19.6459  17
  -5  -9   1 52.3170 18.9760  46
  -5  -9   1 55.9283 22.3709  45
   5   9  -1 64.5428 26.8065  44
   5   9  -1 96.1143 30.1637  42
   5   9  -1 58.7801 24.3733  49
  -5  -9   0 4418.50 148.575  11
  -5  -9   0 4437.95 137.592  17
   5   9   0 4259.26 138.944  16
   5   9   0 4274.30 152.405  49
  -5  -9   0 4208.50 141.745  46
  -5  -9   0 4470.97 153.328  45
   5   9   0 4349.04 144.982  44
   5   9   0 4541.40 152.722  42
  -5  -9   0 4436.35 140.971  38
  -5  -9  -1 2500.94 103.684  11
   5   9   1 2259.64 96.6245  16
   5   9   1 2298.75 105.879  49
  -5  -9  -1 2405.80 101.157  46
  -5  -9  -1 2450.01 105.855  45
   5   9   1 2276.51 94.9847  44
   5   9   1 2454.14 105.846  42
  -5  -9  -1 2272.57 96.2087  38
  -5  -9  -2 33.6400 15.7934  38
  -5  -9  -2 23.0953 15.5717  11
   5   9   2 44.8388 21.1647  49
   5   9   2 30.3788 18.9442  16
  -5  -9  -2 19.4145 17.0050  46
  -5  -9  -2 12.3810 16.9131  45
   5   9   2 16.1400 15.8004  42
   5   9   3 1778.01 74.9463  16
   5   9   3 1869.79 82.5450  49
  -5  -9  -3 1804.08 75.7578  46
  -5  -9  -3 1802.80 77.4907  45
   5   9   3 1724.95 71.4114  42
  -5  -9  -3 1694.88 71.2378  38
   5   9   4 312.082 31.4169  49
  -5  -9  -4 317.274 29.6394  46
  -5 -10  12 35.2714 15.9021  14
  -5 -10  11 6899.43 159.251  14
  -5 -10  10 330.640 34.3832  17
  -5 -10  10 365.769 36.2310  14
  -5 -10   9 639.325 51.8889  17
  -5 -10   9 615.405 45.9713  14
  -5 -10   8 66.4840 21.3870  17
  -5 -10   7 6184.75 170.423  11
  -5 -10   7 6390.18 181.704  17
  -5 -10   6 175.043 34.1371  11
  -5 -10   6 159.565 32.5193  17
  -5 -10   5 578.194 52.9035  11
  -5 -10   5 575.123 54.3129  17
   5  10  -5 505.197 45.1442  42
  -5 -10   4 4946.42 158.755  11
  -5 -10   4 4858.35 154.006  17
   5  10  -4 4559.52 144.624  49
  -5 -10   4 4836.22 152.014  45
   5  10  -4 4950.18 150.756  42
  -5 -10   3 156.334 28.6905  11
  -5 -10   3 211.109 33.1014  17
  -5 -10   3 174.060 32.0480  45
   5  10  -3 174.540 30.5652  49
   5  10  -3 185.955 36.5062  44
   5  10  -3 188.616 31.5581  42
  -5 -10   2 147.090 31.0862  11
  -5 -10   2 106.605 23.9643  17
   5  10  -2 140.261 26.2953  49
  -5 -10   2 153.253 28.1206  45
   5  10  -2 146.232 28.5661  44
   5  10  -2 118.774 26.4823  42
  -5 -10   1 106.467 23.2141  11
  -5 -10   1 111.438 21.5877  17
   5  10  -1 73.2499 20.5313  49
  -5 -10   1 90.9310 19.9630  46
  -5 -10   1 85.6222 21.4310  45
   5  10  -1 92.4880 21.6031  44
   5  10  -1 92.5846 21.8868  42
  -5 -10   0 383.172 36.7341  11
   5  10   0 333.735 35.4771  49
  -5 -10   0 361.554 34.5791  46
  -5 -10   0 361.966 37.2873  45
   5  10   0 335.812 33.3907  44
   5  10   0 368.693 37.6760  42
  -5 -10  -1 107.022 17.9905  38
  -5 -10  -1 95.8373 18.2384  11
   5  10   1 116.840 20.8876  49
  -5 -10  -1 102.949 18.5062  46
  -5 -10  -1 77.6509 18.1031  45
   5  10   1 70.2521 15.1135  44
   5  10   1 94.1121 19.3559  42
  -5 -10  -2 250.744 26.2913  45
  -5 -11   9 292.807 31.3022  17
   5  11  -9 278.570 30.5300  44
  -5 -11   8 2125.19 86.3428  17
   5  11  -8 2351.56 93.4765  44
  -5 -11   7 305.923 32.9239  11
  -5 -11   7 272.959 33.5017  17
   5  11  -7 291.974 37.1722  44
  -5 -11   6 1975.72 83.3079  11
  -5 -11   6 2013.80 86.1490  17
   5  11  -6 2221.43 95.4536  44
  -5 -11   6 2014.90 80.1876  13
  -5 -11   5 403.321 39.3573  11
  -5 -11   5 376.171 37.0152  17
   5  11  -5 400.260 39.9287  44
   5  11  -5 368.170 30.7272  42
  -5 -11   5 422.156 37.7896  13
  -5 -11   4 671.893 48.3779  11
  -5 -11   4 610.969 44.4064  17
   5  11  -4 645.364 48.3860  44
   5  11  -4 647.446 44.0427  42
  -5 -11   3 18.1229 13.6553  11
  -5 -11   3-3.48496 11.8958  17
   5  11  -3-9.62251 12.8682  44
   5  11  -3-11.7651 14.2164  42
  -5 -11   2-8.66677 14.0961  11
  -5 -11   2-6.96991 9.91646  17
   5  11  -2 3.20644 11.9655  44
   5  11  -2 0.31471 10.6856  42
   5  11  -2 5.80589 8.74699  41
  -5 -11   1 663.252 40.5205  11
   5  11  -1 605.849 38.4654  44
   5  11  -1 716.549 43.1395  42
   6 -11  -1 1606.68 67.0411  37
   6 -11  -1 1696.40 69.0899  47
  -6  11   1 1719.87 67.4371  41
   6 -11   0 325.823 33.0965  37
  -6  11   0 396.786 34.2974  41
   6 -11   0 335.370 30.1716  21
   6 -11   0 314.716 32.6824  47
   6 -11   1 19.1672 14.3069  37
  -6  11  -1 31.5067 12.7165  20
   6 -11   1 18.2599 14.0672  47
  -6  11  -1 20.7027 11.0867  41
  -6  11  -1 21.5719 13.0814  42
   6 -11   1 23.3235 13.5540  21
  -6  11  -2 423.125 37.2792  20
   6 -11   2 415.214 41.7880  37
   6 -11   2 373.853 34.6876  18
   6 -11   2 399.842 39.8350  47
  -6  11  -2 416.798 34.5179  43
  -6  11  -2 407.688 35.2720  41
   6 -11   2 392.194 34.6086  21
   6 -11   3 10.1549 13.9970  37
  -6  11  -3 7.14651 11.0949  20
   6 -11   3-5.29031 10.0033  12
   6 -11   3 31.7397 15.0724  18
   6 -11   3-1.77921 12.3499  47
  -6  11  -3 9.34318 11.1087  43
  -6  11  -3 19.8790 12.2828  41
   6 -11   4 8.64955 14.9415  37
  -6  11  -4 22.6554 12.9024  20
   6 -11   4 13.5486 11.5608  12
   6 -11   4 22.0511 14.9838  18
   6 -11   4-5.08347 13.2676  47
  -6  11  -4-16.2949 13.0511  43
  -6  11  -4 15.5349 10.9019  39
  -6  11  -5 347.507 34.7344  20
   6 -11   5 412.999 41.9549  37
   6 -11   5 313.561 32.5238  12
   6 -11   5 331.400 36.5737  18
   6 -11   5 336.037 38.4926  47
  -6  11  -5 297.869 32.1992  43
  -6  11  -5 329.431 30.9449  39
  -6  11  -6 2618.16 90.6239  20
   6 -11   6 2544.10 100.907  37
   6 -11   6 2685.06 95.4646  12
   6 -11   6 2528.81 98.7772  47
  -6  11  -6 2633.40 91.9681  43
  -6  11  -6 2620.10 86.9858  39
  -6  11  -7 1346.26 59.4795  20
   6 -11   7 1331.82 68.7789  37
   6 -11   7 1374.24 65.8806  12
   6 -11   7 1365.24 68.8501  47
  -6  11  -7 1360.18 62.4513  43
  -6  11  -7 1402.66 60.9354  39
   6 -11   8 916.150 53.5637  37
   6 -11   8 904.608 51.2278  12
   6 -11   8 922.842 53.3281  47
  -6  11  -8 908.695 46.9925  43
  -6  11  -8 928.609 47.0830  39
   6 -11   9 662.572 40.2928  12
  -6  11  -9 707.402 37.6602  39
   6 -10  -3 57.2598 15.5120  37
   6 -10  -3 55.9074 15.5072  47
  -6  10   3 55.0043 15.7819  41
   6 -10  -3 50.9505 15.7671  21
   6 -10  -2 2871.29 104.804  37
   6 -10  -2 2924.32 106.533  47
  -6  10   2 2909.42 101.693  42
  -6  10   2 2951.29 105.245  41
   6 -10  -2 2939.04 104.887  21
   6 -10  -1 51.3406 20.4840  37
  -6  10   1 83.7665 17.8970  20
   6 -10  -1 69.2143 20.4380  47
  -6  10   1 69.3338 18.6587  41
  -6  10   1 80.8831 22.0682  42
   6 -10  -1 76.2712 21.1203  21
  -6  10   0 3171.24 109.615  20
   6 -10   0 3184.30 123.868  37
   6 -10   0 3173.62 123.126  47
  -6  10   0 3044.35 102.077  43
  -6  10   0 3278.19 118.236  42
  -6  10   0 3223.00 118.082  41
   6 -10   0 3157.41 118.377  21
  -6  10  -1 2072.26 92.7906  20
   6 -10   1 1969.36 100.907  37
   6 -10   1 1967.82 99.3722  47
  -6  10  -1 1916.58 85.1901  43
  -6  10  -1 1996.24 92.0824  42
  -6  10  -1 1995.29 92.9588  41
   6 -10   1 1874.45 92.5439  21
  -6  10  -2 8015.01 197.419  20
   6 -10   2 7777.56 212.273  37
   6 -10   2 7335.22 192.995  18
  -6  10  -2 7761.56 190.700  43
  -6  10  -2 7774.43 192.698  42
  -6  10  -2 7643.00 189.749  41
   6 -10   2 7448.81 196.145  21
   6 -10   2 7687.20 209.578  47
  -6  10  -3 1738.51 87.9688  20
   6 -10   3 1553.80 93.6456  37
   6 -10   3 1601.03 87.6014  18
   6 -10   3 1593.63 93.4545  47
  -6  10  -3 1781.41 86.7895  43
  -6  10  -3 1727.70 83.6505  42
  -6  10  -3 1585.97 77.7000  41
   6 -10   3 1572.42 85.5166  21
  -6  10  -3 1672.92 76.3569  39
   6 -10   4 34.4864 20.1168  37
  -6  10  -4 37.0054 20.4326  20
   6 -10   4 83.7650 23.8702  12
   6 -10   4 31.7458 18.3060  18
   6 -10   4 21.9368 17.9391  47
  -6  10  -4 41.8156 18.4889  43
  -6  10  -4 44.5807 17.6703  39
   6 -10   4 19.7242 16.0265  21
  -6  10  -5 1057.84 66.4249  20
   6 -10   5 997.478 73.5228  37
   6 -10   5 1013.88 67.6551  12
   6 -10   5 986.263 70.8113  18
   6 -10   5 960.182 71.9850  47
  -6  10  -5 1105.27 67.1627  43
   6 -10   5 900.086 62.2635  21
  -6  10  -5 1071.59 63.4914  39
  -6  10  -6 2840.37 106.467  20
   6 -10   6 2788.15 123.157  37
   6 -10   6 3126.35 119.908  12
   6 -10   6 2903.38 124.653  47
  -6  10  -6 3041.33 111.663  43
  -6  10  -6 2968.05 106.495  39
  -6  10  -7 1450.53 71.4932  20
   6 -10   7 1554.53 86.6926  37
   6 -10   7 1526.60 81.1779  12
  -6  10  -7 1441.41 61.8915  48
   6 -10   7 1478.71 85.0649  47
  -6  10  -7 1628.60 76.3280  43
  -6  10  -7 1546.34 74.5088  39
  -6  10  -8 528.748 38.4649  20
   6 -10   8 528.684 50.1930  37
   6 -10   8 553.353 47.5356  12
   6 -10   8 457.189 37.1354  26
  -6  10  -8 491.690 35.3179  48
   6 -10   8 501.199 48.1448  47
  -6  10  -8 559.929 43.4218  43
  -6  10  -8 553.073 42.7987  39
   6 -10   9 197.554 30.3833  37
   6 -10   9 211.671 28.8155  12
  -6  10  -9 185.111 21.9094  48
   6 -10   9 217.891 32.6221  47
   6 -10   9 161.061 20.8160  26
  -6  10  -9 200.857 23.7165  43
  -6  10  -9 185.205 24.1684  39
   6 -10  10 575.285 41.5012  12
   6 -10  10 573.009 42.1434  37
  -6  10 -10 665.228 36.9142  48
   6 -10  10 566.106 43.5942  47
  -6  10 -10 584.354 36.2399  39
   6  -9  -5 7.29360 10.9754  37
   6  -9  -5-3.64239 12.3781  47
  -6   9   5-1.40630 12.3992  25
  -6   9   5 3.80690 11.8257  41
   6  -9  -5 1.30384 12.1613  21
   6  -9  -4 143.973 25.0543  37
   6  -9  -4 117.404 22.5630  47
  -6   9   4 125.720 22.1809  25
  -6   9   4 129.727 22.3217  44
  -6   9   4 133.788 24.9142  41
   6  -9  -4 127.899 26.0554  21
   6  -9  -3 16.4509 16.8109  37
   6  -9  -3 4.68502 16.0538  47
  -6   9   3-15.6385 19.6621  25
  -6   9   3 19.3710 13.2981  44
  -6   9   3-24.1985 19.4671  42
  -6   9   3 23.7025 16.1735  41
   6  -9  -3 55.6078 20.7841  21
   6  -9  -2 114.546 28.5627  37
   6  -9  -2 65.8845 22.2369  47
  -6   9   2 70.3895 18.2430  25
  -6   9   2 151.288 29.1251  42
  -6   9   2 95.9863 25.3103  41
   6  -9  -2 125.643 28.4255  21
   6  -9  -1 9.40069 18.7672  37
  -6   9   1 14.7273 12.1404  20
   6  -9  -1 15.5655 17.6931  47
  -6   9   1 12.6451 13.4186  25
  -6   9   1 10.1806 12.0896  43
  -6   9   1 16.6074 19.0306  42
  -6   9   1 8.24721 17.8179  41
   6  -9  -1 21.1696 20.7665  40
   6  -9  -1 6.82202 18.3270  21
  -6   9   0 10522.3 243.964  20
   6  -9   0 10535.8 266.159  37
   6  -9   0 11019.1 268.910  47
  -6   9   0 10738.1 240.970  25
  -6   9   0 10382.6 236.631  43
  -6   9   0 10951.1 254.991  42
  -6   9   0 10562.7 253.842  41
   6  -9   0 10388.9 244.696  40
   6  -9   0 10830.1 262.828  21
  -6   9  -1 651.106 58.6638  20
   6  -9   1 482.885 55.2968  37
   6  -9   1 504.794 56.6733  47
  -6   9  -1 484.465 49.3630  43
  -6   9  -1 471.486 50.7293  42
  -6   9  -1 511.254 52.2064  41
   6  -9   1 411.839 46.7079  40
   6  -9   1 496.529 54.9421  21
  -6   9  -2 1340.72 83.0018  20
   6  -9   2 1288.88 92.5803  37
   6  -9   2 1279.92 84.1884  18
   6  -9   2 1390.49 93.9091  47
  -6   9  -2 1399.54 84.9637  43
  -6   9  -2 1352.12 82.7147  42
  -6   9  -2 1292.00 79.7716  41
   6  -9   2 1246.79 80.0859  40
   6  -9   2 1368.59 88.8457  21
  -6   9  -2 1240.70 69.9954  39
  -6   9  -3 2330.49 110.598  20
   6  -9   3 2400.14 124.977  37
   6  -9   3 2299.52 115.259  18
   6  -9   3 2384.08 125.000  47
  -6   9  -3 2426.31 110.890  43
  -6   9  -3 2172.91 99.6165  41
  -6   9  -3 2276.03 105.742  42
   6  -9   3 2164.70 105.855  40
   6  -9   3 2397.41 118.276  21
  -6   9  -3 2269.73 99.3517  39
  -6   9  -4 657.392 57.5012  20
   6  -9   4 775.133 73.1491  37
   6  -9   4 627.153 63.3455  18
   6  -9   4 706.978 69.5764  47
  -6   9  -4 693.488 58.9728  43
   6  -9   4 627.787 61.5881  21
  -6   9  -4 732.140 57.5207  39
  -6   9  -5 2394.22 108.368  20
   6  -9   5 2441.18 127.063  37
   6  -9   5 2367.18 115.377  12
   6  -9   5 2257.43 117.065  18
  -6   9  -5 2212.37 86.7538  48
   6  -9   5 2195.24 120.691  47
  -6   9  -5 2387.36 108.307  43
   6  -9   5 2190.27 110.501  21
  -6   9  -5 2310.36 102.562  39
   6  -9   6 94.6232 29.8001  37
  -6   9  -6 141.780 26.4498  20
   6  -9   6 165.135 32.4486  12
   6  -9   6 103.682 29.6147  18
  -6   9  -6 105.986 21.1214  48
   6  -9   6 127.227 31.2369  47
  -6   9  -6 141.781 26.9830  43
  -6   9  -6 130.877 27.2900  39
   6  -9   6 107.583 25.9889  21
   6  -9   7 102.778 30.4678  37
  -6   9  -7 74.1124 20.0468  20
   6  -9   7 118.093 31.1410  12
  -6   9  -7 115.268 22.0296  48
   6  -9   7 91.4013 30.6407  47
  -6   9  -7 163.950 28.8141  43
  -6   9  -7 109.381 25.9168  39
   6  -9   7 104.577 24.7295  21
  -6   9  -8 1022.47 58.9493  20
   6  -9   8 1065.85 78.7740  37
   6  -9   8 1068.40 74.6645  12
  -6   9  -8 1077.36 59.5252  48
   6  -9   8 1103.56 79.2138  47
   6  -9   8 961.842 60.2782  26
  -6   9  -8 1066.34 62.5866  43
  -6   9  -8 1071.19 64.1566  39
   6  -9   9 2594.26 115.700  37
   6  -9   9 2596.38 108.674  12
  -6   9  -9 2644.12 90.2233  48
   6  -9   9 2580.39 114.042  47
   6  -9   9 2342.31 89.9700  26
  -6   9  -9 2395.40 87.3631  43
  -6   9  -9 2640.77 96.5969  39
   6  -9  10 1241.00 69.4620  12
   6  -9  10 1293.57 74.0149  37
   6  -9  10 1262.74 75.2167  47
   6  -9  10 1156.37 57.1199  26
  -6   9 -10 1284.50 58.5394  48
  -6   9 -10 1245.85 60.1547  39
   6  -9  11-6.53971 12.7583  12
  -6   9 -11 6.54984 9.27467  48
   6  -9  11-0.13827 11.0590  47
   6  -9  11 12.2241 10.9006  23
   6  -9  11 7.90858 10.3007  22
  -6   9 -11 14.7815 8.60800  39
   6  -8  -7 38.7715 14.6752  47
   6  -8  -7 39.0302 14.0630  21
   6  -8  -6 1275.79 67.2101  37
   6  -8  -6 1326.59 69.7714  47
  -6   8   6 1224.38 62.9730  25
  -6   8   6 1189.99 63.9518  41
  -6   8   6 1246.85 68.3032  44
   6  -8  -5 10015.6 226.599  37
   6  -8  -5 9712.23 223.972  47
  -6   8   5 10099.3 218.812  25
  -6   8   5 9467.13 220.479  44
  -6   8   5 9675.69 224.916  41
   6  -8  -4 39.9919 20.7498  37
   6  -8  -4 65.0864 23.7816  47
  -6   8   4 5.24901 16.1435  25
  -6   8   4 34.5348 16.1444  44
  -6   8   4 15.7961 16.4611  42
  -6   8   4 4.24187 18.4817  41
   6  -8  -3 486.058 52.5341  37
   6  -8  -3 508.284 55.5253  47
  -6   8   3 440.521 47.2082  25
  -6   8   3 483.876 46.8212  44
  -6   8   3 410.986 45.7050  42
  -6   8   3 418.346 48.9991  41
   6  -8  -2 39.5736 18.2792  37
  -6   8   2 144.060 27.3185  20
   6  -8  -2 116.304 31.1901  47
  -6   8   2 82.4965 25.1740  25
  -6   8   2 38.9381 15.8863  43
  -6   8   2 43.7582 18.3079  42
  -6   8   2 89.2953 28.7720  41
  -6   8   1 6449.70 190.108  20
   6  -8  -1 6067.86 203.888  37
   6  -8  -1 6465.54 207.523  47
  -6   8   1 6348.09 189.785  25
  -6   8   1 6188.10 184.680  43
  -6   8   1 6426.97 197.982  42
  -6   8   1 6311.06 200.002  41
   6  -8  -1 6677.68 211.138  21
  -6   8   0 1535.19 91.6211  20
   6  -8   0 1498.72 99.2226  37
   6  -8   0 1571.76 101.856  47
  -6   8   0 1590.57 91.4625  25
  -6   8   0 1536.47 90.9823  43
  -6   8   0 1523.98 94.0215  42
  -6   8   0 1431.15 91.9647  41
   6  -8   0 1529.24 100.094  21
   6  -8   1 330.454 49.3285  37
  -6   8  -1 350.275 45.6642  20
   6  -8   1 328.912 49.6180  47
  -6   8  -1 322.918 43.7302  43
  -6   8  -1 335.539 45.1958  42
  -6   8  -1 331.634 44.3821  41
   6  -8   1 379.534 49.3422  40
   6  -8   1 339.567 48.5146  21
  -6   8  -2 7272.93 210.784  20
   6  -8   2 7204.15 233.534  37
   6  -8   2 7067.96 216.159  18
   6  -8   2 7236.14 231.596  47
  -6   8  -2 7423.72 210.263  43
  -6   8  -2 7414.35 211.114  42
  -6   8  -2 6940.59 201.425  41
   6  -8   2 7217.17 217.628  40
   6  -8   2 7244.44 226.295  21
  -6   8  -2 7319.03 193.316  39
  -6   8  -3 6926.68 204.326  20
   6  -8   3 6745.73 226.158  37
   6  -8   3 6818.05 216.034  18
   6  -8   3 6849.75 224.703  47
  -6   8  -3 7153.63 205.027  43
  -6   8  -3 6649.47 196.492  42
   6  -8   3 6658.94 209.335  40
   6  -8   3 6971.32 222.627  21
  -6   8  -3 6795.91 189.991  39
  -6   8  -4 1438.12 88.1622  20
   6  -8   4 1413.26 101.252  37
   6  -8   4 1426.13 96.9966  18
  -6   8  -4 1342.85 71.4522  48
   6  -8   4 1362.51 99.0458  47
  -6   8  -4 1547.77 90.6462  43
   6  -8   4 1356.58 91.6732  40
   6  -8   4 1433.04 99.4930  21
  -6   8  -4 1386.95 83.4651  39
  -6   8  -5 895.149 68.8192  20
   6  -8   5 826.033 79.1433  37
   6  -8   5 937.790 77.8628  12
   6  -8   5 933.404 82.2954  18
  -6   8  -5 921.293 60.2230  48
   6  -8   5 927.112 81.9902  47
   6  -8   5 970.778 76.6671  40
   6  -8   5 895.039 76.2989  21
  -6   8  -5 938.304 69.5632  39
   6  -8   6 162.562 40.3258  37
  -6   8  -6 175.131 29.9283  20
   6  -8   6 196.662 39.6446  12
  -6   8  -6 189.956 29.2156  48
   6  -8   6 148.026 36.7392  47
  -6   8  -6 184.937 35.3356  43
   6  -8   6 195.382 34.9302  40
  -6   8  -6 180.867 32.3828  39
   6  -8   6 189.041 38.0338  21
  -6   8  -7 539.711 48.6973  20
   6  -8   7 562.902 63.9570  37
   6  -8   7 600.022 60.6254  12
  -6   8  -7 538.746 46.3679  48
   6  -8   7 640.445 68.5354  47
  -6   8  -7 656.316 55.9063  43
   6  -8   7 599.992 57.5726  40
   6  -8   7 633.743 63.1333  21
  -6   8  -7 622.169 55.1873  39
   6  -8   8 5058.02 184.130  37
   6  -8   8 4877.35 170.754  12
   6  -8   8 4348.63 142.436  26
  -6   8  -8 4807.41 139.189  48
   6  -8   8 4842.09 181.174  47
  -6   8  -8 4619.67 140.079  43
   6  -8   8 4814.18 165.294  21
  -6   8  -8 4889.73 150.518  39
   6  -8   9 632.647 61.9528  37
   6  -8   9 617.904 57.0289  12
  -6   8  -9 648.358 48.8178  48
   6  -8   9 567.755 47.7741  26
   6  -8   9 649.174 65.6698  47
   6  -8   9 618.452 54.5595  21
  -6   8  -9 579.857 47.5972  39
   6  -8  10 800.115 61.4103  12
   6  -8  10 818.293 64.3507  37
  -6   8 -10 847.138 52.0798  48
   6  -8  10 873.045 68.1852  47
   6  -8  10 760.581 50.8499  26
  -6   8 -10 773.733 50.4378  39
   6  -8  11 938.068 59.2801  12
  -6   8 -11 900.103 49.0065  48
   6  -8  11 933.285 63.2688  47
   6  -8  11 779.999 46.2388  26
   6  -8  11 855.347 52.4414  23
   6  -8  11 859.499 55.1527  22
  -6   8 -11 847.127 46.4777  39
   6  -8  12 1257.73 58.6419  12
  -6   8 -12 1210.83 50.0991  48
  -6   8 -12 1183.58 49.1166  45
   6  -8  12 1109.21 51.5828  23
   6  -8  12 1158.49 54.1032  22
   6  -7  -8 29.8751 13.4639  47
  -6   7   8 2.10609 12.2232  27
  -6   7   7 4874.56 139.418  27
   6  -7  -7 5596.06 156.790  47
  -6   7   7 5428.28 143.878  25
  -6   7   7 5269.72 118.976  24
  -6   7   7 5537.03 161.284  44
  -6   7   7 5035.21 143.603  41
  -6   7   6 2593.69 104.860  27
   6  -7  -6 2941.97 119.571  47
  -6   7   6 2824.11 110.978  25
  -6   7   6 2710.78 89.1306  24
  -6   7   6 2828.04 121.394  44
  -6   7   6 2712.47 115.081  41
   6  -7  -5 696.594 62.2470  37
  -6   7   5 658.327 55.8328  25
   6  -7  -5 653.243 60.6113  47
  -6   7   5 628.128 44.5113  24
  -6   7   5 771.273 64.2378  44
  -6   7   5 633.862 55.9738  42
  -6   7   5 670.227 62.2333  41
   6  -7  -4 3516.90 145.087  37
   6  -7  -4 3825.92 151.882  47
  -6   7   4 3417.93 137.762  42
  -6   7   4 3318.81 109.024  24
  -6   7   4 3419.38 139.901  44
  -6   7   4 3430.27 145.818  41
  -6   7   4 3473.85 137.257  25
   6  -7  -3 58.2100 24.5821  37
  -6   7   3 49.3986 20.3518  25
  -6   7   3 72.6104 23.7864  44
  -6   7   3 22.6626 13.0188  24
  -6   7   3 12.0796 17.2576  42
  -6   7   3 46.6805 21.8211  41
   6  -7  -2 66.7235 25.0431  37
  -6   7   2 81.8438 21.9844  20
   6  -7  -2 117.099 30.2238  47
  -6   7   2 81.0261 25.2539  25
  -6   7   2 90.0194 19.5017  24
  -6   7   2 143.319 30.9947  43
  -6   7   2 87.0441 26.4482  42
  -6   7   2 90.7189 26.4977  41
   6  -7  -1 58.0463 29.6360  37
  -6   7   1 54.9446 24.3530  20
   6  -7  -1 93.6688 36.4604  47
  -6   7   1 43.6549 22.9098  25
  -6   7   1 49.5419 21.3573  43
  -6   7   1 59.0612 25.3138  42
  -6   7   1 59.3610 28.0848  41
   6  -7  -1 45.6059 26.7348  21
  -6   7   0 21094.3 404.398  20
   6  -7   0 21192.0 435.373  37
   6  -7   0 21080.4 428.848  47
  -6   7   0 21302.9 398.570  25
  -6   7   0 21216.8 404.897  43
  -6   7   0 21078.1 408.543  42
  -6   7   0 20593.0 407.934  41
   6  -7   0 21855.4 438.781  21
  -6   7  -1 1090.07 79.7051  20
   6  -7   1 1168.13 91.1699  37
   6  -7   1 1066.34 86.1642  47
  -6   7  -1 1148.68 81.5167  43
  -6   7  -1 1180.87 83.8342  42
  -6   7  -1 1024.29 76.4512  41
   6  -7   1 1101.17 85.8241  40
   6  -7   1 1191.69 91.5059  21
  -6   7  -2 6737.65 204.948  20
   6  -7   2 6265.63 219.590  37
   6  -7   2 6337.62 217.964  47
  -6   7  -2 6749.42 202.735  43
  -6   7  -2 6415.73 198.631  42
  -6   7  -2 6391.11 192.524  41
   6  -7   2 6728.62 218.689  40
   6  -7   2 6661.43 221.975  21
  -6   7  -2 6627.11 187.479  39
  -6   7  -3 327.542 45.6866  20
   6  -7   3 309.881 49.4099  37
   6  -7   3 315.417 46.7621  18
  -6   7  -3 336.635 37.1035  48
   6  -7   3 270.553 45.1427  47
  -6   7  -3 390.233 48.8590  43
  -6   7  -3 333.521 44.0955  42
   6  -7   3 338.736 48.9851  40
  -6   7  -3 327.892 42.2975  39
   6  -7   3 252.980 44.6171  21
   6  -7   4 130.941 38.9809  37
  -6   7  -4 99.8291 28.5048  20
   6  -7   4 140.727 35.3609  12
   6  -7   4 63.3376 25.6484  18
  -6   7  -4 106.322 25.6600  48
   6  -7   4 32.2271 23.0000  47
  -6   7  -4 100.521 31.2493  43
   6  -7   4 98.8864 31.6891  40
  -6   7  -4 75.6404 26.6736  39
   6  -7   4 75.8226 30.2936  21
  -6   7  -5 19627.7 372.623  20
   6  -7   5 19410.5 425.082  37
   6  -7   5 19394.4 400.962  12
   6  -7   5 19558.9 413.980  18
  -6   7  -5 19705.8 345.007  48
   6  -7   5 19063.8 414.548  47
  -6   7  -5 19214.2 368.280  43
   6  -7   5 19232.2 405.812  40
   6  -7   5 19269.8 410.094  21
  -6   7  -5 19915.4 370.152  39
  -6   7  -6 7905.69 211.332  20
   6  -7   6 7963.84 254.720  37
   6  -7   6 8159.47 240.828  12
  -6   7  -6 8094.10 199.724  48
   6  -7   6 8295.02 256.270  47
  -6   7  -6 7868.68 209.205  43
   6  -7   6 8239.34 243.429  40
   6  -7   6 8132.37 246.182  21
  -6   7  -6 7957.79 213.840  39
  -6   7  -7 13147.4 275.864  20
   6  -7   7 13479.8 339.521  37
   6  -7   7 13690.8 320.127  12
  -6   7  -7 13329.4 268.785  48
   6  -7   7 13806.2 341.055  47
  -6   7  -7 13210.2 276.027  43
   6  -7   7 12913.8 315.877  40
   6  -7   7 13630.3 326.782  21
  -6   7  -7 14026.7 290.272  39
   6  -7   8 87.1845 31.1042  37
   6  -7   8 147.197 34.0581  12
  -6   7  -8 112.574 26.8358  48
   6  -7   8 158.569 40.2694  47
  -6   7  -8 116.758 25.0488  43
   6  -7   8 110.579 33.3930  40
  -6   7  -8 124.326 26.3865  39
   6  -7   8 99.8291 30.4580  21
   6  -7   9 774.259 67.1081  12
   6  -7   9 671.153 65.6061  37
  -6   7  -9 756.163 54.8981  48
   6  -7   9 736.993 70.5552  47
   6  -7   9 730.766 56.2357  26
   6  -7   9 695.296 62.0427  40
   6  -7   9 732.489 64.8204  21
  -6   7  -9 715.266 55.6494  39
   6  -7  10 1705.08 93.3415  12
   6  -7  10 1573.33 96.4487  37
  -6   7 -10 1709.18 77.6158  48
   6  -7  10 1663.31 98.1192  47
   6  -7  10 1525.12 76.3111  26
   6  -7  10 1576.99 84.9705  40
   6  -7  10 1696.36 90.1089  21
  -6   7 -10 1573.20 76.7131  39
   6  -7  11 1164.84 70.1423  12
  -6   7 -11 1226.45 59.5660  48
   6  -7  11 1242.06 76.9627  47
   6  -7  11 1191.61 61.4543  26
   6  -7  11 1075.89 60.8182  23
   6  -7  11 1158.65 67.3232  22
  -6   7 -11 1122.90 57.0716  39
   6  -7  12 109.467 21.6529  12
  -6   7 -12 113.727 17.9848  45
  -6   7 -12 85.0901 15.6066  48
   6  -7  12 75.9227 14.9214  26
   6  -7  12 79.4097 16.0170  23
   6  -7  12 74.2963 18.0097  22
  -6   6   9 955.155 56.8005  27
  -6   6   9 980.191 45.7809  24
  -6   6   8 3507.79 112.702  25
  -6   6   8 3641.47 127.561  27
  -6   6   8 3541.30 119.064  41
  -6   6   8 3776.75 106.828  24
  -6   6   7 1327.52 80.4328  27
   6  -6  -7 1383.19 84.2882  47
  -6   6   7 1377.64 77.0560  25
  -6   6   7 1273.66 64.8941  24
  -6   6   7 1237.42 78.8713  41
  -6   6   7 1486.97 90.5494  44
  -6   6   6 1920.71 99.9206  27
  -6   6   6 2086.90 101.882  25
  -6   6   6 2069.95 88.0247  24
  -6   6   6 2107.24 112.545  44
   6  -6  -6 2174.38 110.784  47
  -6   6   6 2141.39 111.316  41
   6  -6  -5 112.521 29.6077  47
  -6   6   5 118.390 28.0231  25
  -6   6   5 125.209 30.0698  44
  -6   6   5 82.3641 19.9396  24
  -6   6   5 105.908 26.8491  42
  -6   6   5 110.630 29.7945  41
   6  -6  -4 5188.72 184.502  37
   6  -6  -4 5484.75 189.803  47
  -6   6   4 5063.36 173.742  25
  -6   6   4 4974.78 147.677  24
  -6   6   4 5158.39 180.375  44
  -6   6   4 5028.84 174.707  42
  -6   6   4 5199.44 188.343  41
  -6   6   3 7514.59 210.322  20
   6  -6  -3 7540.50 229.442  37
   6  -6  -3 7952.27 236.597  47
  -6   6   3 7572.95 217.066  25
  -6   6   3 7555.56 186.528  24
  -6   6   3 7252.36 215.728  44
  -6   6   3 7370.02 216.001  43
  -6   6   3 7512.38 222.191  42
  -6   6   3 7627.34 231.018  41
  -6   6   2 335.995 45.6126  20
   6  -6  -2 226.771 40.8747  37
   6  -6  -2 252.880 43.5308  47
  -6   6   2 200.504 37.1867  25
  -6   6   2 191.528 29.9915  24
  -6   6   2 249.460 39.6222  43
  -6   6   2 291.677 43.5705  42
  -6   6   2 253.487 44.2211  41
  -6   6   1 38317.1 596.815  20
   6  -6  -1 38755.6 634.418  37
   6  -6  -1 39614.2 638.917  47
  -6   6   1 38218.3 598.486  25
  -6   6   1 36385.1 534.076  24
  -6   6   1 38407.7 606.134  43
  -6   6   1 38006.8 609.085  42
  -6   6   1 38352.0 615.378  41
  -6   6   0 5512.97 183.867  20
   6  -6   0 5634.04 201.854  37
   6  -6   0 5758.18 201.985  47
  -6   6   0 5698.14 183.349  25
  -6   6   0 5088.21 145.446  24
  -6   6   0 5557.54 186.301  43
  -6   6   0 5662.84 188.954  42
  -6   6   0 5481.34 186.650  41
   6  -6   0 6007.28 209.604  21
  -6   6  -1 12665.5 294.888  20
   6  -6   1 12671.5 321.233  37
   6  -6   1 12640.7 316.958  47
  -6   6  -1 13197.3 298.653  43
  -6   6  -1 12794.1 297.449  42
  -6   6  -1 12891.2 293.928  41
   6  -6   1 13331.9 328.051  21
  -6   6  -1 12993.8 271.966  39
   6  -6   2 115.085 33.8170  37
  -6   6  -2 230.674 39.0680  20
  -6   6  -2 211.284 31.1610  48
   6  -6   2 186.484 41.4804  47
  -6   6  -2 193.950 38.0517  43
  -6   6  -2 306.537 43.1345  42
  -6   6  -2 205.265 36.0216  41
   6  -6   2 185.100 42.7129  40
   6  -6   2 133.281 34.4864  21
  -6   6  -3 29743.1 500.463  20
   6  -6   3 29632.9 543.865  37
   6  -6   3 27789.2 500.613  12
  -6   6  -3 29204.0 455.662  48
   6  -6   3 28822.4 534.348  47
  -6   6  -3 29419.7 490.756  43
   6  -6   3 29864.4 537.643  40
   6  -6   3 29349.7 536.825  21
  -6   6  -3 29665.0 480.750  39
  -6   6  -4 7421.00 212.112  20
   6  -6   4 7519.10 243.575  37
   6  -6   4 7340.73 225.651  12
   6  -6   4 7518.02 221.514  36
   6  -6   4 7416.74 230.112  18
  -6   6  -4 7315.63 191.249  48
   6  -6   4 7456.10 238.543  47
  -6   6  -4 7453.71 210.348  43
   6  -6   4 7760.21 243.970  40
   6  -6   4 7560.43 240.896  21
  -6   6  -4 7398.77 206.562  39
  -6   6  -5 477.074 50.7285  20
   6  -6   5 451.259 56.2891  12
   6  -6   5 451.191 60.2705  37
  -6   6  -5 532.309 50.4329  48
   6  -6   5 382.005 55.3982  47
   6  -6   5 443.828 58.9769  40
  -6   6  -5 522.704 53.5110  39
   6  -6   5 419.202 58.7722  21
  -6   6  -6 15328.4 313.225  20
   6  -6   6 15512.8 368.905  37
   6  -6   6 15667.1 352.829  12
  -6   6  -6 15358.7 300.408  48
   6  -6   6 15446.7 367.645  47
  -6   6  -6 15554.6 310.780  43
   6  -6   6 15766.4 363.576  40
   6  -6   6 15562.3 365.271  21
  -6   6  -6 15505.0 319.155  39
   6  -6   7 10210.0 290.845  37
   6  -6   7 10460.3 278.098  12
  -6   6  -7 10480.0 234.502  48
   6  -6   7 10611.6 294.727  47
  -6   6  -7 9849.23 229.220  43
   6  -6   7 10003.6 282.895  40
   6  -6   7 10156.0 286.624  21
  -6   6  -7 10634.6 249.917  39
   6  -6   8 1969.26 114.765  12
   6  -6   8 2016.89 123.364  37
  -6   6  -8 2172.59 97.3447  48
   6  -6   8 1963.09 119.242  47
   6  -6   8 2047.71 118.150  40
   6  -6   8 1953.23 116.019  21
  -6   6  -8 2057.78 100.582  39
   6  -6   9 3144.30 137.151  12
   6  -6   9 2970.91 145.056  37
  -6   6  -9 2956.18 110.343  48
   6  -6   9 2979.53 141.164  47
   6  -6   9 2899.59 134.452  40
   6  -6   9 2916.39 138.527  21
   6  -6   9 2766.41 112.867  26
  -6   6  -9 3011.85 117.199  39
   6  -6  10 1713.41 96.4536  12
   6  -6  10 1757.04 103.938  37
  -6   6 -10 1775.38 80.1305  48
   6  -6  10 1775.76 105.599  47
   6  -6  10 1616.19 80.6577  26
   6  -6  10 1754.73 94.7633  22
   6  -6  10 1685.80 96.4644  40
   6  -6  10 1678.46 97.6965  21
  -6   6 -10 1755.53 82.0275  39
   6  -6  11 454.330 45.0996  12
   6  -6  11 507.508 53.3636  47
   6  -6  11 476.511 40.4152  26
  -6   6 -11 459.834 37.2845  48
  -6   6 -11 495.627 41.9121  45
   6  -6  11 420.605 39.9417  23
   6  -6  11 481.180 45.8209  22
   6  -6  11 472.481 46.4972  40
   6  -6  11 428.878 44.6961  21
  -6   6 -11 488.139 38.4629  39
   6  -6  12 128.949 24.5038  12
  -6   6 -12 145.340 20.2173  48
   6  -6  12 118.784 19.0389  26
  -6   6 -12 119.029 18.3659  45
   6  -6  12 123.591 19.0938  23
   6  -6  12 99.9390 20.2073  22
   6  -6  12 105.435 19.9288  40
  -6   5  10-10.3481 14.1177  27
  -6   5  10 10.5749 10.9262  24
  -6   5   9-23.7738 17.8180  27
   6  -5  -9 10.4908 17.4137  47
  -6   5   9 24.8251 15.3242  24
  -6   5   8 6779.06 200.302  27
  -6   5   8 7395.52 218.241  44
   6  -5  -8 7810.65 213.820  47
  -6   5   8 6892.67 178.076  25
  -6   5   8 7358.58 175.305  24
  -6   5   8 6689.17 192.074  41
  -6   5   7 6072.00 192.748  27
   6  -5  -7 6299.48 197.688  47
  -6   5   7 5842.57 174.852  25
  -6   5   7 6286.20 167.385  24
  -6   5   7 6230.21 205.236  44
  -6   5   7 6127.66 196.221  41
  -6   5   6 251.671 39.1692  27
   6  -5  -6 307.083 44.8958  47
  -6   5   6 264.039 37.5886  25
  -6   5   6 334.817 48.8082  44
  -6   5   6 281.157 34.9155  24
  -6   5   6 265.857 41.6496  41
   6  -5  -5 5455.79 188.950  47
  -6   5   5 5222.75 174.761  25
  -6   5   5 5096.89 155.346  24
  -6   5   5 5354.09 189.966  44
  -6   5   5 5157.83 174.130  42
  -6   5   5 5115.75 186.791  41
   6  -5  -4 6143.53 202.507  47
  -6   5   4 5793.00 186.383  25
  -6   5   4 5734.16 165.216  24
  -6   5   4 5665.28 192.624  44
  -6   5   4 5563.65 188.172  43
  -6   5   4 5576.09 186.282  42
  -6   5   4 5422.23 195.227  41
  -6   5   3 135.047 30.0569  20
   6  -5  -3 96.4494 27.4954  47
  -6   5   3 112.862 26.5519  25
  -6   5   3 146.040 31.6457  44
  -6   5   3 92.0175 18.0685  24
  -6   5   3 128.938 31.6373  43
  -6   5   3 136.379 32.9781  42
  -6   5   3 128.361 32.8231  41
  -6   5   2 18778.7 367.901  20
   6  -5  -2 18943.5 393.154  37
  -6   5   2 18941.4 336.718  24
   6  -5  -2 19512.9 397.414  47
  -6   5   2 18722.3 371.804  25
  -6   5   2 19600.9 385.589  43
  -6   5   2 19347.9 384.767  42
  -6   5   2 19198.8 390.706  41
  -6   5   1 34088.3 551.701  20
   6  -5  -1 34568.7 582.756  37
   6  -5  -1 34615.8 582.873  47
  -6   5   1 35005.0 554.963  25
  -6   5   1 33756.6 504.322  24
  -6   5   1 34940.2 562.656  43
  -6   5   1 33590.4 559.072  42
  -6   5   1 34489.7 565.854  41
  -6   5   0 2683.34 122.261  20
   6  -5   0 2766.45 136.154  37
   6  -5   0 2742.79 133.856  47
  -6   5   0 2867.52 126.491  25
  -6   5   0 2832.00 126.612  43
  -6   5   0 2658.43 103.488  24
  -6   5   0 2881.00 129.920  42
  -6   5   0 2816.38 127.077  41
   6  -5   0 2931.63 142.961  21
  -6   5  -1 1004.22 74.1362  20
   6  -5   1 1068.23 83.5253  37
  -6   5  -1 1020.04 66.0541  48
   6  -5   1 1075.11 83.0387  47
  -6   5  -1 1044.27 76.2253  43
  -6   5  -1 1055.43 77.3828  42
  -6   5  -1 1007.44 73.6568  41
   6  -5   1 1186.29 90.9937  21
  -6   5  -1 1032.37 68.0550  39
  -6   5  -2 12181.0 283.007  20
   6  -5   2 12159.5 309.017  37
  -6   5  -2 12363.9 257.522  48
   6  -5   2 12024.0 305.309  47
  -6   5  -2 12762.2 282.920  43
   6  -5   2 12596.5 314.932  40
   6  -5   2 12341.5 313.311  21
  -6   5  -2 12542.0 268.284  39
   6  -5   3 6827.79 224.768  37
   6  -5   3 6492.60 202.809  12
  -6   5  -3 6716.94 180.121  48
   6  -5   3 6612.84 219.332  47
  -6   5  -3 6883.89 196.510  43
   6  -5   3 7139.94 231.314  40
   6  -5   3 7087.50 228.392  21
  -6   5  -3 6722.76 190.717  39
  -6   5  -4 8589.13 226.109  20
   6  -5   4 8425.06 256.247  37
   6  -5   4 8338.79 239.013  12
   6  -5   4 8370.91 241.340  36
  -6   5  -4 8662.14 209.379  48
   6  -5   4 8508.77 253.485  47
  -6   5  -4 8842.00 224.149  43
   6  -5   4 8532.77 259.402  40
   6  -5   4 8557.71 258.089  21
  -6   5  -4 8583.58 222.606  39
   6  -5   5 20.0463 20.0181  37
  -6   5  -5 68.4278 18.8131  20
   6  -5   5 84.0046 25.6318  12
   6  -5   5 56.3261 24.2655  36
  -6   5  -5 48.7951 18.8086  48
   6  -5   5 23.1720 23.8522  47
  -6   5  -5 63.6153 20.4155  43
   6  -5   5 2.88082 31.5328  40
  -6   5  -5 101.424 27.2363  39
   6  -5   5 53.9912 26.0899  21
  -6   5  -6 2576.53 112.945  20
   6  -5   6 2635.25 141.118  37
   6  -5   6 2689.58 132.837  12
  -6   5  -6 2597.71 110.669  48
   6  -5   6 2648.53 138.769  47
  -6   5  -6 2620.15 111.243  43
   6  -5   6 2701.69 141.386  40
   6  -5   6 2626.33 140.796  21
  -6   5  -6 2556.28 116.177  39
   6  -5   7 2072.61 117.066  12
   6  -5   7 2090.73 124.196  37
  -6   5  -7 2172.62 98.4942  48
   6  -5   7 2178.56 125.264  47
   6  -5   7 2192.97 127.015  40
   6  -5   7 2028.21 122.255  21
  -6   5  -7 2107.43 105.074  39
   6  -5   8 738.512 68.6889  12
   6  -5   8 703.757 71.6967  37
  -6   5  -8 826.094 60.6086  48
   6  -5   8 754.268 73.9766  47
   6  -5   8 790.721 76.7917  40
   6  -5   8 783.148 76.6147  21
  -6   5  -8 774.704 61.8658  39
   6  -5   9 111.079 35.6379  37
   6  -5   9 102.916 27.4966  12
  -6   5  -9 133.406 27.6263  48
   6  -5   9 145.172 34.9661  47
   6  -5   9 90.7473 30.6088  40
   6  -5   9 134.248 34.7660  21
  -6   5  -9 202.248 31.0161  39
   6  -5  10 63.7790 21.2452  12
  -6   5 -10 71.4386 19.8348  48
   6  -5  10 47.9894 23.0232  47
   6  -5  10 40.2852 15.5821  26
  -6   5 -10 75.9475 22.5975  45
   6  -5  10 44.3425 15.7467  23
   6  -5  10 29.6830 17.6806  22
   6  -5  10 49.5394 23.8839  40
   6  -5  10 79.5540 27.2894  21
  -6   5 -10 75.9569 20.6260  39
   6  -5  11 127.246 27.6854  12
   6  -5  11 157.970 32.6528  47
   6  -5  11 101.841 20.8557  26
  -6   5 -11 134.249 24.3460  45
   6  -5  11 113.247 22.0778  23
   6  -5  11 135.513 28.2406  22
   6  -5  11 132.504 30.4314  40
   6  -5  11 97.9279 28.0038  21
  -6   5 -11 88.0329 17.6483  48
  -6   5 -12 351.100 30.6297  45
   6  -5  12 392.380 32.1284  26
   6  -5  12 367.189 36.8490  22
   6  -5  12 350.009 37.4246  40
   6  -5  12 386.280 39.3116  21
   6  -5  12 362.587 37.0347  12
   6  -5  13 721.620 42.1488  22
  -6   4  11 263.534 31.8640  27
  -6   4  11 301.964 28.0385  24
  -6   4  10 996.640 69.9497  27
  -6   4  10 1075.54 58.6135  24
  -6   4   9 603.372 58.3533  27
  -6   4   9 649.947 50.2978  24
  -6   4   8 2421.93 122.191  27
  -6   4   8 2519.63 130.071  44
  -6   4   8 2593.88 105.372  24
  -6   4   8 2577.09 122.695  41
  -6   4   7 11736.2 291.470  27
  -6   4   7 11392.4 259.142  25
  -6   4   7 11516.0 298.181  44
  -6   4   7 11852.2 253.844  24
  -6   4   7 11330.6 287.415  41
  -6   4   6 316.973 45.2273  27
  -6   4   6 429.931 47.7877  25
  -6   4   6 308.770 39.5941  24
  -6   4   6 351.776 51.5961  44
  -6   4   6 261.688 42.0200  41
  -6   4   5 25782.8 476.604  44
   6  -4  -5 26030.0 467.045  47
  -6   4   5 24314.1 439.937  25
  -6   4   5 25853.9 423.149  24
  -6   4   5 24801.0 458.310  43
  -6   4   5 24964.9 471.102  41
   6  -4  -4 4594.47 170.325  47
  -6   4   4 4339.48 157.022  25
  -6   4   4 4378.47 143.437  24
  -6   4   4 4260.15 165.112  44
  -6   4   4 4272.06 164.540  43
  -6   4   4 4353.53 160.494  42
  -6   4   4 4193.06 167.084  41
  -6   4   3 2354.42 112.872  20
   6  -4  -3 2452.97 122.397  47
  -6   4   3 2613.04 120.111  25
  -6   4   3 2544.10 106.429  24
  -6   4   3 2607.74 123.129  44
  -6   4   3 2617.38 126.609  43
  -6   4   3 2773.43 126.163  42
  -6   4   3 2590.50 126.991  41
  -6   4   2 14190.0 307.018  20
   6  -4  -2 14656.1 326.649  47
  -6   4   2 14780.1 311.786  25
  -6   4   2 14966.9 288.265  24
  -6   4   2 14950.6 322.843  43
  -6   4   2 14735.5 320.730  42
  -6   4   2 14672.5 324.676  41
  -6   4   1 2981.71 128.113  20
   6  -4  -1 2928.26 132.952  47
  -6   4   1 2945.25 125.974  25
  -6   4   1 2978.72 112.525  24
  -6   4   1 2960.66 127.747  43
  -6   4   1 3008.09 130.762  42
  -6   4   1 2943.98 131.055  41
   6  -4  -1 3110.58 144.023  21
  -6   4   0 15838.9 329.609  20
  -6   4   0 16780.9 311.824  48
   6  -4   0 16401.9 351.610  47
  -6   4   0 16067.3 297.599  24
  -6   4   0 16592.2 333.537  43
  -6   4   0 16954.7 341.914  42
  -6   4   0 16380.6 335.459  41
   6  -4   0 16682.6 366.929  21
  -6   4  -1 5816.38 181.353  20
   6  -4   1 5440.92 189.238  37
  -6   4  -1 5727.64 164.236  48
   6  -4   1 5519.65 188.422  47
  -6   4  -1 5471.61 153.442  24
  -6   4  -1 5799.29 177.860  43
  -6   4  -1 5894.77 178.979  41
  -6   4  -1 5914.76 457.489   6
   6  -4   1 5905.04 201.557  40
   6  -4   1 5919.25 202.106  21
  -6   4  -1 6023.87 168.333  39
  -6   4  -2 20954.0 389.846  20
   6  -4   2 20124.6 411.215  37
  -6   4  -2 21696.5 364.688  48
  -6   4  -2 21620.7 386.810  43
   6  -4   2 21331.1 428.547  40
   6  -4   2 21071.3 425.032  21
  -6   4  -2 21132.1 371.729  39
  -6   4  -3 1373.11 84.9795  20
   6  -4   3 1271.99 91.3040  37
   6  -4   3 1210.69 81.1887  12
  -6   4  -3 1390.63 76.9559  48
   6  -4   3 1153.73 85.7385  47
  -6   4  -3 1294.81 79.6687  43
   6  -4   3 1329.72 97.4225  40
   6  -4   3 1264.47 93.7153  21
  -6   4  -3 1363.06 80.3663  39
  -6   4  -4 1629.06 91.4137  20
   6  -4   4 1623.33 104.519  37
   6  -4   4 1641.33 98.4712  12
   6  -4   4 1630.86 102.763  36
  -6   4  -4 1630.08 83.9455  48
   6  -4   4 1488.78 99.2298  47
  -6   4  -4 1600.24 87.6359  43
   6  -4   4 1671.94 109.143  40
   6  -4   4 1608.21 106.577  21
  -6   4  -4 1726.93 92.8079  39
  -6   4  -5 3042.42 125.145  20
   6  -4   5 3219.79 144.183  12
   6  -4   5 3182.30 150.645  37
   6  -4   5 3274.69 149.488  36
  -6   4  -5 3565.88 126.279  48
   6  -4   5 3129.07 146.862  47
  -6   4  -5 3137.36 123.981  43
   6  -4   5 3114.96 152.274  40
   6  -4   5 3309.07 155.983  21
  -6   4  -5 3250.99 130.008  39
   6  -4   6 9858.61 268.859  12
   6  -4   6 9789.03 280.155  37
   6  -4   6 10400.4 280.901  36
  -6   4  -6 10410.8 233.732  48
   6  -4   6 9914.27 278.233  47
   6  -4   6 10048.1 288.924  40
   6  -4   6 9698.72 282.347  21
  -6   4  -6 10274.4 248.034  39
   6  -4   7 1272.64 91.6393  12
   6  -4   7 1088.77 91.1739  37
   6  -4   7 1241.55 90.8743  36
  -6   4  -7 1304.15 77.5799  48
   6  -4   7 1104.03 88.3627  47
   6  -4   7 1132.71 91.9229  40
   6  -4   7 1319.72 100.267  21
  -6   4  -7 1237.49 80.3896  39
   6  -4   8 3541.27 151.750  12
   6  -4   8 3547.42 161.947  37
  -6   4  -8 3569.29 128.945  48
   6  -4   8 3614.93 158.284  47
   6  -4   8 3642.29 164.891  40
   6  -4   8 3663.36 167.500  21
  -6   4  -8 3605.21 136.677  39
   6  -4   9 2819.84 131.331  12
  -6   4  -9 2785.02 107.957  48
   6  -4   9 2875.46 139.390  47
  -6   4  -9 2920.74 119.250  45
   6  -4   9 2761.48 127.381  22
   6  -4   9 2891.05 141.801  40
   6  -4   9 2952.89 144.827  21
  -6   4  -9 2867.62 116.422  39
   6  -4  10 1012.07 74.4417  12
   6  -4  10 953.444 76.7136  47
  -6   4 -10 897.113 56.9298  48
  -6   4 -10 994.298 65.7006  45
   6  -4  10 882.861 59.3796  26
   6  -4  10 915.490 69.9341  22
   6  -4  10 1015.25 82.1631  40
   6  -4  10 975.009 79.7294  21
  -6   4 -10 870.655 59.4472  39
   6  -4  11 129.753 27.4712  12
  -6   4 -11 150.863 22.0966  48
   6  -4  11 148.084 24.6175  26
  -6   4 -11 132.705 24.6472  45
   6  -4  11 153.579 28.8099  22
   6  -4  11 119.937 30.2185  40
   6  -4  11 165.526 33.4325  21
   6  -4  12 851.419 46.4318  26
  -6   4 -12 807.979 46.2966  45
   6  -4  12 865.143 55.5545  22
   6  -4  12 882.886 60.3863  40
   6  -4  12 913.233 62.1571  21
   6  -4  12 892.657 58.1485  12
   6  -4  13 138.388 18.8962  22
  -6   3  12 1.67424 12.2973  27
  -6   3  12 33.5408 13.1214  24
  -6   3  11 6233.40 178.933  27
  -6   3  11 6244.60 149.766  24
  -6   3  10 754.461 65.5149  27
  -6   3  10 876.409 59.0391  24
  -6   3   9 526.519 57.6483  27
  -6   3   9 499.765 47.1311  24
  -6   3   8 519.243 58.2616  27
  -6   3   8 486.622 48.4096  24
  -6   3   8 541.200 57.8485  41
  -6   3   7 435.115 54.1095  27
  -6   3   7 401.918 54.3326  44
  -6   3   7 361.925 42.0334  24
  -6   3   7 441.594 53.8232  41
  -6   3   6 40212.8 633.155  27
  -6   3   6 39336.8 592.848  25
  -6   3   6 40960.5 654.900  44
  -6   3   6 39993.3 583.901  24
  -6   3   6 38016.8 620.316  43
  -6   3   6 39159.7 639.664  41
  -6   3   5 20719.6 398.459  27
  -6   3   5 20187.7 377.483  25
  -6   3   5 21613.3 421.489  44
  -6   3   5 20377.2 362.775  24
  -6   3   5 20247.4 404.900  43
  -6   3   5 20277.1 408.402  41
  -6   3   4 9060.55 232.841  20
  -6   3   4 9428.10 235.797  25
  -6   3   4 9516.29 219.962  24
  -6   3   4 9588.59 256.332  44
  -6   3   4 9345.45 250.491  43
  -6   3   4 9174.39 249.524  41
  -6   3   3 16439.0 324.600  25
  -6   3   3 15948.8 300.051  24
  -6   3   3 16123.1 338.100  44
  -6   3   3 15557.8 334.792  43
  -6   3   3 15617.8 337.603  41
  -6   3   2 2249.30 107.913  20
  -6   3   2 2201.74 105.384  25
  -6   3   2 2210.15 95.1638  24
  -6   3   2 1996.94 106.402  43
  -6   3   2 2205.77 112.908  41
   6  -3  -2 2133.45 115.470  21
  -6   3   1 7230.31 202.815  20
   6  -3  -1 7093.83 588.442  33
  -6   3   1 7527.57 184.571  24
  -6   3   1 7454.20 207.825  43
  -6   3   1 7540.75 210.592  41
   6  -3  -1 7489.73 656.397   3
   6  -3  -1 7621.84 225.553  21
  -6   3   0 3354.56 132.674  20
   6  -3   0 3160.41 390.584  33
  -6   3   0 3559.64 120.074  24
  -6   3   0 3517.36 135.032  43
   6  -3   0 3814.30 486.002   3
  -6   3  -1 12400.6 278.309  20
   6  -3   1 12086.8 783.607  33
  -6   3  -1 12930.1 277.466  43
  -6   3  -1 12014.0 646.313   6
   6  -3   1 12932.0 932.329   3
   6  -3   1 13246.2 312.059  40
   6  -3   1 12666.4 302.536  21
  -6   3  -2 569.716 53.4183  20
  -6   3  -2 444.563 125.558   6
   6  -3   2 252.937 126.351  33
  -6   3  -2 614.609 139.360  28
  -6   3  -2 720.971 54.0638  48
  -6   3  -2 335.533 41.3803  43
   6  -3   2 302.319 48.0713  40
  -6   3  -2 279.212 36.2279  39
   6  -3   2 317.929 47.1314  21
  -6   3  -3 26622.5 447.254  20
   6  -3   3 24545.0 438.732  12
   6  -3   3 25956.0 473.123  37
   6  -3   3 26680.0 482.461  36
  -6   3  -3 26641.7 426.086  48
   6  -3   3 24024.4 455.818  47
  -6   3  -3 26658.9 437.489  43
   6  -3   3 26933.2 496.621  40
   6  -3   3 26646.2 487.336  21
  -6   3  -3 26988.9 438.943  39
  -6   3  -4 1561.12 88.6236  20
   6  -3   4 1603.03 95.2369  12
   6  -3   4 1513.11 98.7869  37
   6  -3   4 1534.02 101.154  36
  -6   3  -4 1472.40 79.6786  48
  -6   3  -4 1557.59 84.3005  43
   6  -3   4 1575.79 105.176  40
   6  -3   4 1503.48 96.8131  47
   6  -3   4 1454.00 100.504  21
  -6   3  -4 1524.69 86.4966  39
  -6   3  -5 2626.03 114.323  20
   6  -3   5 2762.46 129.141  12
   6  -3   5 2704.58 135.752  37
   6  -3   5 2750.85 139.027  36
  -6   3  -5 2732.44 111.167  48
   6  -3   5 2568.79 128.769  47
   6  -3   5 2660.57 138.799  40
   6  -3   5 2583.25 137.043  21
  -6   3  -5 2664.93 117.025  39
   6  -3   6 34.8194 27.2522  37
   6  -3   6 43.2784 21.8431  12
   6  -3   6 42.6094 27.0776  36
  -6   3  -6 51.0507 20.5514  48
   6  -3   6 47.6425 19.6430  47
   6  -3   6 66.2804 31.0727  40
  -6   3  -6 39.1209 17.9926  39
   6  -3   6 80.4517 32.1526  21
   6  -3   7 12972.9 310.667  12
   6  -3   7 12772.0 323.407  37
   6  -3   7 13128.4 325.507  36
  -6   3  -7 12875.5 269.698  48
   6  -3   7 12785.1 315.147  47
   6  -3   7 13060.7 332.715  40
   6  -3   7 12781.4 332.823  21
  -6   3  -7 13143.9 287.247  39
   6  -3   8 1920.49 112.057  12
   6  -3   8 1897.68 119.573  37
   6  -3   8 2002.26 116.234  36
  -6   3  -8 1889.08 91.4018  48
   6  -3   8 1926.68 113.649  47
  -6   3  -8 2063.06 102.313  45
   6  -3   8 1872.49 107.455  22
   6  -3   8 1799.57 115.194  40
   6  -3   8 1922.77 122.326  21
  -6   3  -8 1936.19 99.0197  39
   6  -3   9 3958.92 155.835  12
   6  -3   9 3729.02 153.113  36
  -6   3  -9 3717.64 125.291  48
   6  -3   9 3900.53 160.068  47
  -6   3  -9 4152.50 142.797  45
   6  -3   9 3804.51 149.058  22
   6  -3   9 3736.60 164.517  40
   6  -3   9 3912.00 168.452  21
  -6   3  -9 3918.25 137.904  39
   6  -3  10 23.0763 19.5989  12
  -6   3 -10 12.6574 11.9537  48
  -6   3 -10 19.4671 17.8914  45
   6  -3  10 23.3342 26.7779  22
   6  -3  10 6.18525 22.2809  40
   6  -3  10 5.65978 21.9694  21
  -6   3 -10 14.0377 10.8953  39
   6  -3  11 997.166 55.9062  26
  -6   3 -11 1027.18 60.6782  45
   6  -3  11 1029.66 68.3058  22
   6  -3  11 956.460 72.9883  40
   6  -3  11 1044.75 76.1744  21
   6  -3  11 1071.50 70.2151  12
   6  -3  12 112.599 17.3727  26
  -6   3 -12 116.632 18.2624  45
   6  -3  12 124.067 23.4449  22
   6  -3  12 142.293 29.0168  40
  -6   2  13 199.549 24.1616  27
  -6   2  13 261.283 23.2955  24
  -6   2  12 32.7014 19.3445  27
  -6   2  12 5.70025 12.7336  24
  -6   2  11 7515.83 209.584  27
  -6   2  11 7892.45 183.335  24
  -6   2  10 271.288 42.8266  27
  -6   2  10 248.988 35.9359  24
  -6   2   9 1600.50 102.628  27
  -6   2   9 1543.61 84.6274  24
  -6   2   8 93.3818 27.9135  27
  -6   2   8 74.2364 21.9344  24
  -6   2   7 8416.88 244.937  27
  -6   2   7 8061.40 207.704  24
  -6   2   7 8131.37 240.588  41
  -6   2   6 9876.72 263.400  27
  -6   2   6 10086.2 231.836  24
  -6   2   6 9757.93 262.432  43
  -6   2   6 10142.1 268.840  41
  -6   2   5 3343.78 140.089  27
  -6   2   5 3284.18 127.342  25
  -6   2   5 3376.15 124.572  24
  -6   2   5 3410.34 145.667  43
  -6   2   5 3417.26 148.827  41
  -6   2   4 5440.25 174.505  20
  -6   2   4 5443.84 168.946  25
  -6   2   4 5732.70 162.632  24
  -6   2   4 5874.25 191.434  43
  -6   2   4 5654.10 188.707  41
  -6   2   3 876.044 66.4097  20
  -6   2   3 755.371 174.816  35
   6  -2  -3 979.273 204.880  33
  -6   2   3 823.708 201.269   8
  -6   2   3 964.288 62.6887  24
  -6   2   3 853.180 68.6529  43
  -6   2   3 904.601 72.4668  41
   6  -2  -2 18826.8 937.756  33
  -6   2   2 21739.1 1011.25   8
   6  -2  -2 20908.7 1068.00   3
   6  -2  -1 7951.40 600.968  33
  -6   2   1 8317.46 594.624   8
   6  -2  -1 8980.68 707.752   3
  -6   2   0 26.1109 43.0831   6
   6  -2   0 54.7135 78.0920  33
   6  -2   0 30.5193 66.8806   3
  -6   2  -1-41.3122 60.7323   6
   6  -2   1 111.817 103.980  33
   6  -2   1-60.3419 102.854   3
   6  -2   2 7566.12 222.706  36
  -6   2  -2 7624.21 192.359  48
   6  -2   2 7808.67 727.171   3
  -6   2  -2 7159.05 507.890   6
  -6   2  -3 17112.5 334.278  20
   6  -2   3 17540.9 371.521  36
  -6   2  -3 16543.8 701.430  32
  -6   2  -3 16817.9 316.141  48
   6  -2   3 17609.9 375.946  40
   6  -2   3 16486.5 364.782  21
  -6   2  -3 17601.5 330.147  39
  -6   2  -4 2551.32 113.751  20
   6  -2   4 2680.96 122.705  12
   6  -2   4 2611.80 127.038  37
   6  -2   4 2741.51 138.535  36
  -6   2  -4 2774.24 111.861  48
   6  -2   4 2748.20 137.533  40
   6  -2   4 2502.96 130.165  21
  -6   2  -4 2722.12 117.208  39
   6  -2   5 19072.8 378.988  12
   6  -2   5 18748.7 389.426  37
   6  -2   5 19426.0 412.928  36
  -6   2  -5 18872.1 343.633  48
   6  -2   5 17557.6 370.510  47
   6  -2   5 18864.5 407.270  40
   6  -2   5 18783.9 406.556  21
  -6   2  -5 19319.7 360.408  39
   6  -2   6 6924.45 214.122  12
   6  -2   6 6829.12 221.906  37
   6  -2   6 7136.02 235.750  36
  -6   2  -6 6905.63 186.329  48
   6  -2   6 6504.50 208.700  47
  -6   2  -6 7227.68 198.151  45
   6  -2   6 6725.03 207.407  22
   6  -2   6 6708.52 228.355  40
   6  -2   6 6791.12 231.857  21
  -6   2  -6 7130.29 200.625  39
   6  -2   7 194.061 36.4953  12
   6  -2   7 191.098 43.0923  36
  -6   2  -7 165.470 27.7965  48
   6  -2   7 206.885 38.5480  47
   6  -2   7 154.702 33.8335  22
   6  -2   7 204.178 45.5802  40
  -6   2  -7 215.568 35.9035  39
  -6   2  -7 201.315 34.3177  45
   6  -2   7 188.949 41.1269  21
   6  -2   8 601.601 66.9389  36
  -6   2  -8 719.673 56.2309  48
   6  -2   8 661.368 65.4030  47
  -6   2  -8 793.790 63.1718  45
   6  -2   8 623.996 62.6732  22
   6  -2   8 645.550 71.4597  21
   6  -2   8 543.344 63.4672  40
  -6   2  -8 758.277 62.4993  39
   6  -2   8 642.170 64.0804  12
   6  -2   9 1157.34 88.7345  36
  -6   2  -9 1263.36 78.1393  45
   6  -2   9 1210.00 82.7667  22
   6  -2   9 1132.90 88.9470  40
   6  -2   9 1163.85 93.6056  21
  -6   2  -9 1270.20 75.9687  39
   6  -2   9 1149.92 81.7261  12
   6  -2  10 31.7456 20.6512  12
   6  -2  10 11.9159 18.5182  36
  -6   2 -10-12.2566 15.8704  45
   6  -2  10 36.4721 24.1619  22
   6  -2  10 28.8980 27.1058  40
   6  -2  10 41.8743 26.7659  21
  -6   2 -11 101.725 21.8549  45
   6  -2  11 101.657 24.6460  22
   6  -2  11 140.819 32.0478  40
   6  -2  11 129.658 31.5626  21
  -6   2 -12 262.235 28.2063  46
  -6   2 -12 220.251 23.4499  45
   6  -2  12 267.651 30.8455  22
   6  -2  12 267.244 34.8712  40
  -6   1  13 715.147 50.7305  27
  -6   1  13 754.380 42.1891  24
  -6   1  12 108.628 26.0162  27
  -6   1  12 156.178 23.9183  24
  -6   1  11 83.4086 28.7487  27
  -6   1  11 64.5598 19.3966  24
  -6   1  10 3683.26 153.967  27
  -6   1  10 3691.23 128.894  24
  -6   1   9 3826.55 160.407  27
  -6   1   9 4145.66 141.106  24
  -6   1   8 297.455 45.8921  27
  -6   1   8 287.444 36.9295  24
  -6   1   7 8272.06 240.690  27
  -6   1   7 8443.97 208.387  24
  -6   1   7 7820.39 233.173  43
  -6   1   6 12167.1 292.437  27
  -6   1   6 12388.0 257.759  24
  -6   1   6 11778.6 294.466  43
  -6   1   6 12096.1 298.415  41
  -6   1   5 4221.40 155.659  27
  -6   1   5 4406.00 140.506  24
  -6   1   5 4282.24 164.343  43
  -6   1   5 4502.32 169.094  41
  -6   1   4 16740.9 336.797  20
  -6   1   4 15823.2 827.019  35
  -6   1   4 17334.3 310.587  24
  -6   1   4 17238.1 355.692  43
  -6   1   4 17292.1 939.667   8
  -6   1   4 17006.0 356.146  41
  -6   1   3 5512.69 454.156  35
   6  -1  -3 5689.88 490.070  33
  -6   1   3 7179.84 570.127   8
   6  -1  -3 6370.11 562.160   3
   6  -1  -2 3976.16 405.523  33
  -6   1   2 3956.11 408.344   8
   6  -1  -2 4262.01 468.293   3
  -6   1   1 3177.64 316.084  34
   6  -1  -1 3014.03 357.090  33
   6  -1  -1 3242.76 426.475   3
  -6   1   1 3533.37 365.183   8
  -6   1   0 14182.8 682.204  34
   6  -1   0 12613.1 747.890  33
  -6   1   0 14963.4 689.760   6
   6  -1   0 14184.1 933.150   3
  -6   1  -1 19807.2 784.370  32
  -6   1  -1 20906.0 854.792   6
   6  -1   1 20337.8 1155.44   3
  -6   1  -2 3774.53 335.143  32
   6  -1   2 3218.59 452.747   3
  -6   1  -2 3427.04 350.986   6
  -6   1  -3 4742.01 157.829  20
   6  -1   3 4762.95 181.058  36
  -6   1  -3 4874.32 388.380  32
  -6   1  -3 4848.75 152.868  48
  -6   1  -3 4929.96 151.164  45
   6  -1   3 4795.95 178.379  40
   6  -1   3 4731.60 175.693  21
  -6   1  -3 4746.24 155.663  39
   6  -1   4 18486.5 359.423  12
  -6   1  -4 17758.2 342.849  20
   6  -1   4 17649.2 364.374  37
   6  -1   4 18803.0 402.233  36
  -6   1  -4 18209.0 337.787  48
  -6   1  -4 18771.7 341.222  45
   6  -1   4 17923.9 351.298  22
   6  -1   4 18230.4 391.530  40
   6  -1   4 18582.3 391.286  21
  -6   1  -4 18683.3 349.745  39
   6  -1   5 421.764 50.3763  12
   6  -1   5 453.688 53.9518  37
   6  -1   5 495.469 63.7063  36
  -6   1  -5 418.316 45.4102  48
   6  -1   5 508.746 68.8916  16
  -6   1  -5 474.540 47.4886  45
   6  -1   5 433.391 48.4932  22
   6  -1   5 447.890 59.1239  40
  -6   1  -5 443.352 48.0316  39
   6  -1   5 416.374 56.6559  21
   6  -1   6 5445.90 186.573  12
   6  -1   6 5502.06 208.279  36
  -6   1  -6 5537.29 172.489  45
   6  -1   6 5236.49 178.546  22
   6  -1   6 5178.42 196.918  40
   6  -1   6 5208.68 200.047  21
  -6   1  -6 5378.52 162.365  48
  -6   1  -6 5647.05 177.594  39
   6  -1   7 3599.56 164.483  36
  -6   1  -7 3380.11 124.435  48
   6  -1   7 3381.23 141.701  47
  -6   1  -7 3600.21 138.136  45
   6  -1   7 3476.18 143.843  22
   6  -1   7 3229.77 155.654  40
   6  -1   7 3596.61 164.130  21
  -6   1  -7 3619.19 138.961  39
   6  -1   7 3508.07 147.953  12
   6  -1   8 36.0639 22.7926  12
   6  -1   8 27.3632 27.4637  36
  -6   1  -8 24.7857 22.1422  45
   6  -1   8 37.6597 25.1092  22
   6  -1   8-4.49278 21.9142  40
   6  -1   8 30.4475 27.7655  21
  -6   1  -8 11.3159 14.9434  39
   6  -1   9 1470.36 98.0387  36
  -6   1  -9 1588.44 86.7286  45
   6  -1   9 1534.82 91.2714  22
   6  -1   9 1580.55 101.617  40
   6  -1   9 1647.38 107.238  21
  -6   1  -9 1513.70 81.8424  39
   6  -1   9 1574.61 94.1787  12
   6  -1  10 125.920 30.4825  36
  -6   1 -10 162.470 27.8148  45
   6  -1  10 136.238 26.6916  22
   6  -1  10 83.1864 28.9528  40
   6  -1  10 157.433 38.4275  21
   6  -1  11 91.4500 22.7172  36
  -6   1 -11 130.301 23.8054  46
  -6   1 -11 114.330 20.6624  45
   6  -1  11 124.751 23.9116  22
   6  -1  11 81.1333 24.8452  40
  -6   1 -12 368.530 30.5135  46
   6  -1  12 392.991 33.7482  22
  -6   0  14 158.832 21.2008  27
  -6   0  13 148.849 20.4473  24
  -6   0  13 133.898 25.7158  27
  -6   0  12 1703.87 92.2482  27
  -6   0  12 1788.38 76.7816  24
  -6   0  11 1802.02 101.193  27
  -6   0  11 1710.41 81.8101  24
  -6   0  10 1997.64 113.332  27
  -6   0  10 2137.74 95.7523  24
  -6   0   9-5.53228 16.6120  24
  -6   0   9-11.9498 21.4140  27
  -6   0   8 4406.65 170.051  27
  -6   0   8 4618.94 146.887  24
  -6   0   8 4298.47 169.257  43
  -6   0   7 23476.4 438.794  27
  -6   0   7 23802.2 390.657  24
  -6   0   7 22785.0 442.015  43
  -6   0   6 1710.37 98.6771  27
  -6   0   6 1841.12 88.0558  24
  -6   0   6 1901.38 108.863  43
  -6   0   5 1139.68 77.4718  20
  -6   0   5 1008.50 73.2704  27
  -6   0   5 1113.97 66.0574  24
  -6   0   5 1119.10 82.9959  43
  -6   0   4 11425.4 685.304  35
  -6   0   4 12247.3 749.593   8
  -6   0   4 12982.9 298.937  43
   6   0  -4 13398.2 806.305   3
   6   0  -3 4470.03 378.719   2
  -6   0   3 4926.11 451.957   8
   6   0  -3 5181.90 504.312   3
  -6   0   2 12183.4 641.243  34
   6   0  -2 12116.6 688.599  33
   6   0  -2 12904.4 824.288   3
   6   0  -2 12241.8 621.532   2
  -6   0   1 2602.95 295.190  34
   6   0  -1 2165.12 291.301  33
   6   0  -1 2498.68 379.434   3
  -6   0   0 4661.24 400.733  34
  -6   0   0 3995.10 358.661   6
   6   0   0 4116.46 494.049   3
  -6   0  -1 715.627 152.233   6
  -6   0  -1 822.284 170.304  34
  -6   0  -1 656.605 146.851  32
   6   0   1 662.030 206.089   3
  -6   0  -2 12692.2 271.396  48
   6   0   2 12517.5 304.262  36
  -6   0  -2 13569.4 707.853  34
  -6   0  -2 12655.8 652.955  32
   6   0   2 12610.6 776.548   4
   6   0   2 13228.1 956.075   7
   6   0   2 11873.4 837.432   3
  -6   0  -2 13066.5 698.332   6
  -6   0  -2 12984.8 274.687  39
   6   0   3 94.8285 23.8437  12
  -6   0  -3 99.6651 21.5765  20
   6   0   3 151.018 35.5907  36
  -6   0  -3 54.2085 17.2659  48
  -6   0  -3 88.1823 21.0712  45
   6   0   3 100.419 29.6654  40
  -6   0  -3 163.864 29.6111  39
   6   0   3 133.084 34.2892  21
   6   0   4 1232.96 97.7898  36
  -6   0  -4 1240.06 76.4135  48
   6   0   4 1348.03 104.918  16
  -6   0  -4 1460.62 82.5193  45
   6   0   4 1240.80 78.9038  22
   6   0   4 1196.96 87.7588  40
   6   0   4 1381.31 94.6055  21
  -6   0  -4 1319.14 80.9345  39
   6   0   4 1253.00 82.4982  12
   6   0   5 93.8185 28.0441  12
   6   0   5 109.086 35.9830  36
  -6   0  -5 85.0975 22.9361  48
   6   0   5 170.274 44.4501  16
  -6   0  -5 82.4339 22.6924  45
   6   0   5 53.9807 20.9655  22
   6   0   5 106.535 29.0490  40
  -6   0  -5 76.4512 23.3016  39
   6   0   5 116.702 31.6169  21
   6   0   6 1379.66 103.616  36
   6   0   6 1405.44 103.688  16
  -6   0  -6 1337.85 78.3662  48
  -6   0  -6 1337.20 82.9394  45
   6   0   6 1336.70 87.2861  22
   6   0   6 1296.89 94.8691  40
   6   0   6 1383.17 100.151  21
  -6   0  -6 1318.99 84.0237  39
   6   0   6 1410.13 91.8040  12
   6   0   7 33.0314 21.3894  12
   6   0   7-11.4147 25.7770  36
  -6   0  -7-7.79359 23.3962  45
   6   0   7 26.0213 18.5920  22
   6   0   7-22.2641 27.5034  40
   6   0   7-11.3337 22.4344  21
  -6   0  -7-1.08506 23.4656  39
   6   0   8 157.601 38.3282  36
  -6   0  -8 112.935 21.2046  45
   6   0   8 168.368 33.7099  22
   6   0   8 127.256 31.2864  40
   6   0   8 179.349 41.3317  21
  -6   0  -8 97.3021 21.6816  39
   6   0   9 214.919 39.6213  36
  -6   0  -9 172.633 29.0146  45
   6   0   9 141.074 27.8562  22
   6   0   9 145.460 35.2932  40
   6   0   9 151.465 35.3667  21
   6   0  10 836.531 66.8739  36
  -6   0 -10 1025.96 64.5669  46
  -6   0 -10 893.234 58.8856  45
   6   0  10 928.712 63.7815  22
   6   0  10 903.357 69.1710  40
   6   0  11 2.52129 13.5537  36
  -6   0 -11-7.66763 13.3265  46
  -6   0 -11-7.30902 10.5749  45
   6   0  11-8.39636 13.9031  22
  -6   0 -12 95.4231 15.7079  38
   6   0  12 82.0254 15.9634  22
  -6  -1  14 688.155 44.8089  27
  -6  -1  13-14.2749 16.1662  27
  -6  -1  13 0.57857 9.59164  24
  -6  -1  12 515.384 52.5408  27
  -6  -1  12 514.397 40.2997  24
  -6  -1  11 513.630 44.1688  24
  -6  -1  11 388.599 48.6721  27
  -6  -1  10 754.681 68.8229  27
  -6  -1  10 779.433 55.8885  24
  -6  -1   9 102.917 30.6142  27
  -6  -1   9 125.413 24.2786  24
  -6  -1   9 79.4653 26.4197  43
  -6  -1   9 91.0094 28.6090  14
  -6  -1   8 4208.54 166.202  27
  -6  -1   8 4359.03 138.138  24
  -6  -1   8 4073.68 166.285  43
  -6  -1   8 3964.89 160.819  14
  -6  -1   7 3551.94 147.683  27
  -6  -1   7 3752.99 147.436  15
  -6  -1   7 3669.00 124.809  24
  -6  -1   7 3572.18 155.522  43
  -6  -1   7 3522.55 152.204  14
  -6  -1   6 12669.5 290.284  27
  -6  -1   6 12835.3 292.645  15
  -6  -1   6 12783.2 252.022  24
  -6  -1   6 12883.6 307.787  43
  -6  -1   5 19791.4 377.615  20
  -6  -1   5 18770.6 363.158  27
  -6  -1   5 18956.9 377.336  48
  -6  -1   5 19749.0 379.308  15
  -6  -1   5 19711.9 331.202  24
  -6  -1   5 19921.0 395.743  43
   6   1  -5 19924.2 972.485   3
  -6  -1   4 3668.85 143.037  20
  -6  -1   4 3825.92 145.331  15
  -6  -1   4 3648.95 148.673  43
   6   1  -4 3716.94 423.989   3
   6   1  -4 3064.03 332.354   2
  -6  -1   3 16312.7 778.137  34
   6   1  -3 16037.5 902.322   3
   6   1  -3 16454.7 769.844   2
  -6  -1   2 1610.20 239.336  34
   6   1  -2 1072.62 239.843   3
   6   1  -2 1128.28 207.136   2
  -6  -1   1 1251.93 215.451  34
   6   1  -1 1007.81 235.981   3
   6   1  -1 1145.60 210.018   4
  -6  -1   0 12147.2 680.717  34
   6   1   0 11371.4 693.089   4
  -6  -1   0 11142.6 625.921   6
   6   1   0 10708.2 771.078   3
  -6  -1  -1 1092.63 73.9269  20
  -6  -1  -1 1170.14 75.7129  48
   6   1   1 1240.02 87.3533  36
  -6  -1  -1 1024.53 200.921  34
   6   1   1 1216.56 228.255   4
   6   1   1 1157.80 274.118   7
   6   1   1 1015.42 236.470   3
  -6  -1  -1 1142.91 199.469   6
  -6  -1  -1 1146.62 73.5404  39
  -6  -1  -2 21462.9 391.708  20
   6   1   2 21998.6 431.485  36
  -6  -1  -2 22741.3 383.788  45
  -6  -1  -2 21767.5 388.477  48
   6   1   2 20633.3 398.009  21
  -6  -1  -2 21790.2 391.584  39
   6   1   3 7090.68 228.857  36
  -6  -1  -3 6923.93 193.864  48
   6   1   3 7426.74 249.485  16
  -6  -1  -3 7131.09 192.492  45
   6   1   3 6575.60 204.752  40
   6   1   3 6637.45 208.295  21
  -6  -1  -3 6769.38 195.725  39
   6   1   3 6856.26 194.013  12
  -6  -1  -3 6773.22 195.121  20
   6   1   4 1487.13 105.804  36
  -6  -1  -4 1394.60 82.2722  48
   6   1   4 1545.86 114.102  16
  -6  -1  -4 1494.49 86.6112  45
   6   1   4 1481.61 88.3613  22
   6   1   4 1335.97 91.4110  40
   6   1   4 1406.14 94.9582  21
  -6  -1  -4 1501.55 89.6013  39
   6   1   4 1456.90 90.2680  12
   6   1   5 782.670 79.8873  36
  -6  -1  -5 807.445 61.4710  48
   6   1   5 902.291 88.9076  16
  -6  -1  -5 799.095 64.6800  45
   6   1   5 829.342 68.4311  22
   6   1   5 772.501 71.8667  40
   6   1   5 815.820 74.6505  21
  -6  -1  -5 757.805 65.8356  39
   6   1   5 913.622 74.4681  12
   6   1   6 5539.34 210.217  36
   6   1   6 5540.90 208.766  16
  -6  -1  -6 5447.66 175.700  45
   6   1   6 5345.72 178.378  22
   6   1   6 5229.63 188.485  40
   6   1   6 5393.01 197.106  21
  -6  -1  -6 5443.74 177.887  39
   6   1   7 2132.69 126.016  36
   6   1   7 2017.01 117.424  16
  -6  -1  -7 2256.43 108.305  45
   6   1   7 2068.06 106.010  22
   6   1   7 2020.84 113.261  40
   6   1   7 2203.28 121.546  21
  -6  -1  -7 2114.74 104.753  39
   6   1   8 9.59004 23.7270  36
  -6  -1  -8-12.1955 22.0204  45
   6   1   8-11.5567 27.7492  22
   6   1   8 0.96379 20.9632  40
   6   1   8 15.5456 21.0780  21
  -6  -1  -8 4.90227 12.6874  39
   6   1   9 1596.66 96.6286  36
  -6  -1  -9 1865.72 91.1026  46
  -6  -1  -9 1664.42 84.9526  45
   6   1   9 1819.07 91.1091  22
   6   1   9 1704.00 95.3836  40
   6   1  10 86.5499 24.9507  36
  -6  -1 -10 116.630 22.7245  46
  -6  -1 -10 103.862 20.6484  45
   6   1  10 88.6461 22.7002  40
   6   1  10 119.890 25.1373  22
  -6  -1 -11 518.938 37.0719  38
   6   1  11 410.669 36.5545  36
  -6  -1 -11 467.618 35.6616  46
   6   1  11 518.005 38.9688  22
  -6  -2  14-2.27601 13.5547  27
  -6  -2  13-6.48994 21.3743  27
  -6  -2  12 440.249 48.7612  27
  -6  -2  11 2043.09 108.881  27
  -6  -2  10 10875.3 275.899  27
  -6  -2  10 9536.15 255.133  14
  -6  -2   9 375.190 49.3575  27
  -6  -2   9 424.654 54.2547  14
  -6  -2   8 81.7185 27.8417  43
  -6  -2   8 62.6679 19.4807  14
  -6  -2   8 79.4264 25.9460  27
  -6  -2   7 375.407 46.0995  15
  -6  -2   7 351.375 49.1993  43
  -6  -2   7 371.079 51.0645  14
  -6  -2   7 330.279 44.6481  27
  -6  -2   6 17333.6 349.544  27
  -6  -2   6 16959.0 358.887  48
  -6  -2   6 18407.5 363.310  15
  -6  -2   6 18138.1 378.938  43
  -6  -2   5 4775.35 160.676  27
  -6  -2   5 4889.16 173.893  48
  -6  -2   5 5197.17 174.493  15
  -6  -2   5 5418.04 186.207  43
  -6  -2   5 5142.49 175.215  20
  -6  -2   4 6507.64 201.835  48
  -6  -2   4 6594.89 196.631  15
  -6  -2   4 6777.95 206.877  43
   6   2  -4 6393.94 517.405   2
  -6  -2   4 6746.01 202.547  20
  -6  -2   3 17061.3 840.602  34
  -6  -2   3 18450.3 366.293  48
  -6  -2   3 17637.3 351.881  15
  -6  -2   3 18364.2 363.100  43
   6   2  -3 19303.8 925.980   2
  -6  -2   3 18582.2 363.906  20
  -6  -2   2 73.2127 25.0540  20
  -6  -2   2 21.0228 40.9938  34
   6   2  -2 101.473 96.5563   2
  -6  -2   2 113.511 29.6553  48
  -6  -2   2 114.090 29.1170  15
  -6  -2   1 30587.3 1139.56  34
  -6  -2   1 30730.7 505.555  48
  -6  -2   1 31104.9 501.611  15
  -6  -2   1 29457.3 495.790  20
   6   2   0 444.058 51.8341  36
  -6  -2   0 487.221 52.2196  48
  -6  -2   0 464.280 50.0573  15
   6   2   0 715.476 175.920   4
   6   2   0 489.482 185.947   7
  -6  -2   0 523.688 52.4595  39
  -6  -2   0 474.861 50.7261  20
   6   2   1 13107.6 311.999  36
  -6  -2  -1 13429.4 291.932  48
  -6  -2  -1 13845.9 297.187  15
  -6  -2  -1 13516.4 281.136  45
  -6  -2  -1 13539.3 292.949  39
  -6  -2  -1 12659.3 287.568  20
   6   2   2 26.0906 26.5443  36
  -6  -2  -2 212.072 33.9483  48
   6   2   2 155.859 44.9821  16
  -6  -2  -2 26.4427 18.4290  45
  -6  -2  -2 86.9228 26.3475  15
  -6  -2  -2 16.5323 15.7685  39
   6   2   3 24529.8 477.796  36
  -6  -2  -3 23985.9 420.617  48
   6   2   3 25336.0 521.683  16
  -6  -2  -3 25110.1 428.115  45
   6   2   3 22890.4 434.408  21
  -6  -2  -3 23794.9 434.227  39
   6   2   4 92.7661 29.9538  36
   6   2   4 50.6481 34.9793  16
  -6  -2  -4 127.200 32.5053  45
   6   2   4 72.4535 22.8799  22
  -6  -2  -4 99.3109 27.7572  39
   6   2   4 83.1820 25.8388  21
   6   2   5 9193.21 274.046  36
   6   2   5 9523.32 288.617  16
  -6  -2  -5 9557.32 241.174  45
   6   2   5 9638.93 240.817  22
   6   2   5 8603.79 237.364  40
   6   2   5 9122.26 252.562  21
  -6  -2  -5 9037.02 239.962  39
   6   2   6 2288.84 129.976  36
   6   2   6 2180.38 129.761  16
  -6  -2  -6 2415.32 112.507  46
  -6  -2  -6 2202.04 110.304  45
   6   2   6 2314.79 111.783  22
   6   2   6 2026.34 109.366  40
   6   2   6 2258.61 120.674  21
  -6  -2  -6 2356.11 114.311  39
   6   2   7 3867.76 167.741  36
   6   2   7 3640.98 154.144  16
  -6  -2  -7 4212.62 149.126  46
  -6  -2  -7 4049.34 147.864  45
   6   2   7 4057.24 146.283  22
   6   2   7 3649.76 144.709  40
   6   2   7 4008.73 160.189  21
  -6  -2  -7 3883.39 142.000  39
   6   2   8 416.969 53.5456  36
   6   2   8 387.665 46.5036  16
  -6  -2  -8 472.486 48.2878  46
  -6  -2  -8 390.041 44.4596  45
   6   2   8 458.530 48.4373  22
   6   2   8 389.880 46.0604  40
  -6  -2  -8 392.203 40.1635  39
   6   2   9 226.399 37.9897  36
  -6  -2  -9 229.075 32.5076  46
  -6  -2  -9 224.474 30.6907  45
   6   2   9 270.995 34.7655  22
  -6  -2 -10 839.063 49.6789  38
   6   2  10 737.056 54.3834  36
  -6  -2 -10 858.289 51.7948  46
  -6  -2 -10 688.102 42.3383  45
   6   2  10 904.413 53.2720  22
  -6  -3  14 513.807 41.8845  27
  -6  -3  13 4676.06 145.849  27
  -6  -3  12 1601.57 89.8424  27
  -6  -3  12 1381.67 80.3949  14
  -6  -3  11 4104.41 153.973  27
  -6  -3  11 3704.12 147.135  14
  -6  -3  10 1829.18 105.158  27
  -6  -3  10 1813.76 107.323  14
  -6  -3   9 203.063 40.9798  27
  -6  -3   9 139.573 37.5041  14
  -6  -3   8 17849.2 365.075  27
  -6  -3   8 17456.4 353.596  15
  -6  -3   8 18189.6 389.177  43
  -6  -3   8 17001.0 381.099  14
  -6  -3   7 4617.87 165.104  27
  -6  -3   7 4985.15 173.397  15
  -6  -3   7 5059.69 186.982  43
  -6  -3   7 5026.52 187.573  14
  -6  -3   6 42.2458 23.4357  27
  -6  -3   6 68.6675 19.6239  15
  -6  -3   6 69.6512 26.6485  43
  -6  -3   5 3036.07 124.781  27
  -6  -3   5 3140.65 133.408  15
  -6  -3   5 3036.90 138.441  43
  -6  -3   5 3001.42 137.609  48
  -6  -3   4 19571.1 391.406  48
  -6  -3   4 19235.8 358.280  27
  -6  -3   4 19769.8 380.429  15
  -6  -3   4 19605.6 387.118  43
   6   3  -3 2459.18 311.250  31
  -6  -3   3 2739.38 123.741  15
  -6  -3   3 2660.32 122.132  43
  -6  -3   3 2809.28 129.409  48
  -6  -3   2 3146.62 136.176  48
  -6  -3   2 3057.09 131.411  15
  -6  -3   2 2976.43 126.427  43
  -6  -3   2 3102.59 128.511  39
  -6  -3   1 24642.4 448.800  48
  -6  -3   1 25303.8 445.991  15
  -6  -3   1 24857.6 438.493  39
   6   3   0 4968.04 176.673  36
  -6  -3   0 5094.53 172.345  48
  -6  -3   0 5162.10 174.839  15
  -6  -3   0 5131.21 164.958  45
  -6  -3   0 5091.65 173.015  39
   6   3   1 7295.51 221.414  36
   6   3   1 7818.46 256.452  16
  -6  -3  -1 7762.97 216.906  15
  -6  -3  -1 7695.00 210.200  45
  -6  -3  -1 7124.66 206.500  48
  -6  -3  -1 7452.08 214.016  39
   6   3   2 19813.2 407.925  36
   6   3   2 22148.4 623.148  49
  -6  -3  -2 19015.5 369.507  48
   6   3   2 21022.0 459.263  16
  -6  -3  -2 20213.0 383.063  15
  -6  -3  -2 20588.6 383.084  45
  -6  -3  -2 21249.4 376.454  46
  -6  -3  -2 19458.3 385.449  39
   6   3   3 2493.74 132.023  36
   6   3   3 2639.65 166.657  49
   6   3   3 2516.46 146.459  16
  -6  -3  -3 2686.53 116.603  46
  -6  -3  -3 2360.84 114.604  45
  -6  -3  -3 2450.87 119.180  39
   6   3   4 144.494 36.5589  36
   6   3   4 172.894 41.5829  16
  -6  -3  -4 201.707 35.2727  46
  -6  -3  -4 228.934 38.5942  45
   6   3   4 244.084 37.8456  22
   6   3   4 185.487 44.0988  49
  -6  -3  -4 225.928 40.0359  39
   6   3   5 806.691 79.0420  36
   6   3   5 627.357 64.4833  49
   6   3   5 805.673 81.7992  16
  -6  -3  -5 732.182 61.8006  46
  -6  -3  -5 640.033 59.2768  45
   6   3   5 752.158 62.3392  22
   6   3   5 781.867 68.0148  21
  -6  -3  -5 659.109 62.4587  39
   6   3   6 4684.38 181.496  36
   6   3   6 4546.23 180.672  16
  -6  -3  -6 4780.80 158.412  46
  -6  -3  -6 4810.25 162.762  45
   6   3   6 4863.26 159.524  22
  -6  -3  -6 4411.33 156.930  39
  -6  -3  -7 34.9379 18.2193  38
   6   3   7 44.4721 25.8910  36
   6   3   7 9.70713 23.0674  16
  -6  -3  -7 48.2315 21.7208  46
  -6  -3  -7 63.4744 25.8211  45
   6   3   7 35.4085 19.0101  22
   6   3   7 65.7350 23.7243  40
  -6  -3  -7 57.0666 21.0223  39
  -6  -3  -8 525.028 46.0078  38
   6   3   8 546.528 56.2587  36
   6   3   8 480.985 47.6842  16
  -6  -3  -8 615.262 51.6733  46
  -6  -3  -8 541.728 48.1191  45
   6   3   8 669.861 53.3537  22
  -6  -3  -9 958.913 54.7650  38
   6   3   9 925.369 63.0523  36
  -6  -3  -9 979.393 57.6294  46
  -6  -3  -9 888.242 52.3465  45
  -6  -3 -10 195.380 21.6729  38
   6   3  10 174.370 23.2453  36
  -6  -4  14 21.1314 16.2373  27
  -6  -4  13 1484.40 78.5834  27
  -6  -4  13 1332.29 71.8379  14
  -6  -4  12 364.432 42.9663  27
  -6  -4  12 346.945 41.3352  14
  -6  -4  11 141.996 29.5294  14
  -6  -4  11 184.215 33.1149  27
  -6  -4  10 1056.83 76.7118  27
  -6  -4  10 1285.87 92.4342  14
  -6  -4   9 22439.9 423.912  27
  -6  -4   9 22446.1 445.936  14
  -6  -4   8 11138.3 271.439  27
  -6  -4   8 11179.7 267.683  15
  -6  -4   8 11176.7 295.696  14
  -6  -4   7 6483.85 198.081  27
  -6  -4   7 6745.84 204.728  15
  -6  -4   7 6791.62 221.592  14
  -6  -4   6 20833.9 389.207  27
  -6  -4   6 20098.2 393.999  15
  -6  -4   6 20702.1 417.398  43
  -6  -4   6 20164.8 416.318  14
  -6  -4   5 38657.9 582.872  27
  -6  -4   5 36679.6 591.131  15
  -6  -4   5 37078.3 606.265  43
  -6  -4   4 141.894 38.9996  27
  -6  -4   4 66.4604 23.3697  48
  -6  -4   4 102.709 33.9676  15
  -6  -4   4 60.7817 26.5812  43
  -6  -4   3 1555.01 96.8795  48
  -6  -4   3 1452.83 92.1801  15
  -6  -4   3 1461.03 89.7527  43
  -6  -4   3 1539.72 91.4289  39
  -6  -4   2 27503.9 486.622  48
  -6  -4   2 27942.3 482.891  15
  -6  -4   2 26444.0 458.689  43
  -6  -4   2 28313.1 479.911  39
   6   4  -1 2135.99 128.755  16
  -6  -4   1 2250.54 114.837  15
  -6  -4   1 2333.47 111.483  45
  -6  -4   1 2122.54 110.602  48
  -6  -4   1 2129.74 112.424  39
  -6  -4   0 305.607 41.2751  48
   6   4   0 196.410 44.4648  16
  -6  -4   0 224.239 36.2294  45
  -6  -4   0 258.832 37.8054  15
  -6  -4   0 344.069 45.3026  39
   6   4   1 1979.50 109.378  36
  -6  -4  -1 1889.38 99.6871  48
   6   4   1 2330.49 208.965  49
   6   4   1 1895.94 125.321  16
  -6  -4  -1 1966.76 105.953  15
  -6  -4  -1 2038.04 106.728  45
  -6  -4  -1 1918.94 105.527  39
   6   4   2 5113.33 184.022  36
   6   4   2 5358.36 211.478  16
  -6  -4  -2 5074.86 171.510  15
  -6  -4  -2 5380.69 171.206  46
  -6  -4  -2 5229.52 177.083  45
  -6  -4  -2 5339.55 182.163  39
   6   4   3 66.7479 24.8548  36
   6   4   3 35.8106 30.2623  16
  -6  -4  -3 48.2387 23.6286  46
  -6  -4  -3 39.7697 20.3788  45
   6   4   3 25.4768 29.0714  49
  -6  -4  -4 1867.77 94.7424  38
   6   4   4 1624.80 104.446  36
   6   4   4 1734.10 111.399  49
   6   4   4 1823.74 121.645  16
  -6  -4  -4 1947.99 100.687  46
  -6  -4  -4 1888.89 102.790  45
   6   4   4 1967.49 97.0627  22
  -6  -4  -4 1774.52 101.471  39
  -6  -4  -5 772.847 60.7837  38
   6   4   5 719.607 68.6170  36
   6   4   5 686.470 64.9835  49
   6   4   5 746.832 76.1129  16
  -6  -4  -5 794.925 62.9303  46
  -6  -4  -5 813.869 66.8048  45
   6   4   5 824.802 63.1644  22
  -6  -4  -5 863.500 68.1623  39
  -6  -4  -6 482.629 46.3866  38
   6   4   6 448.504 53.8607  36
   6   4   6 376.725 45.1432  49
   6   4   6 403.030 52.4491  16
  -6  -4  -6 441.549 46.5053  46
  -6  -4  -6 469.911 49.3707  45
   6   4   6 519.551 49.1395  22
  -6  -4  -6 449.741 47.3888  39
  -6  -4  -7 2701.70 102.856  38
   6   4   7 2821.21 121.195  36
   6   4   7 2482.61 111.602  16
  -6  -4  -7 2810.70 109.795  46
  -6  -4  -7 2681.50 108.130  45
  -6  -4  -7 2447.84 95.2868  39
  -6  -4  -8 2072.21 81.5011  38
   6   4   8 2243.79 97.7330  36
   6   4   8 1903.51 83.7828  16
  -6  -4  -8 2051.11 84.4944  46
  -6  -4  -8 1986.36 82.1207  45
  -6  -4  -9 315.627 27.4249  38
   6   4   9 333.871 32.3231  36
  -6  -4  -9 343.539 29.4731  46
  -6  -5  14 337.699 34.7615  27
  -6  -5  14 216.134 26.2524  14
  -6  -5  13 3487.01 120.964  27
  -6  -5  13 3087.13 114.705  14
  -6  -5  12 395.338 48.5365  27
  -6  -5  12 287.072 40.4141  14
  -6  -5  11 1341.11 84.6509  27
  -6  -5  11 1071.50 80.2486  14
  -6  -5  10 15415.1 324.861  27
  -6  -5  10 14315.1 332.390  14
  -6  -5   9 18467.5 365.696  27
  -6  -5   9 17827.8 386.036  14
  -6  -5   8 3827.09 150.311  27
  -6  -5   8 3550.79 141.970  15
  -6  -5   8 3581.21 160.848  14
  -6  -5   7 14026.0 308.755  27
  -6  -5   7 13355.3 303.543  15
  -6  -5   7 13171.8 324.547  14
  -6  -5   6 16260.1 335.944  27
  -6  -5   6 15258.3 333.872  15
  -6  -5   6 15805.9 355.384  14
  -6  -5   5 56.6318 23.0299  15
  -6  -5   5 35.4859 26.3742  14
  -6  -5   4 2324.83 118.694  15
  -6  -5   4 2383.15 120.918  14
  -6  -5   4 2338.69 114.016  39
   6   5  -3 88.8453 33.8027  16
  -6  -5   3 124.327 29.4443  15
  -6  -5   3 113.419 27.5519  39
  -6  -5   2 4059.13 160.548  15
  -6  -5   2 4040.66 155.873  48
  -6  -5   2 3896.87 154.828  39
   6   5  -2 4171.47 180.097  16
  -6  -5   1 866.218 69.6389  48
  -6  -5   1 806.238 72.2121  15
  -6  -5   1 875.921 70.0194  45
   6   5  -1 816.609 81.2195  16
  -6  -5   1 793.777 68.3683  39
   6   5   0 2728.70 223.319  49
  -6  -5   0 2474.36 115.247  48
   6   5   0 2716.71 146.326  16
  -6  -5   0 2800.31 130.701  15
  -6  -5   0 2757.56 126.480  45
  -6  -5   0 2762.45 128.800  39
   6   5   1 1387.42 132.576  49
  -6  -5  -1 1299.35 86.3136  15
  -6  -5  -1 1341.07 82.0405  46
  -6  -5  -1 1283.70 87.1162  45
   6   5   1 1264.07 101.426  16
  -6  -5  -1 1188.92 85.1380  39
   6   5   2 250.826 40.9802  36
   6   5   2 337.904 60.7908  49
   6   5   2 273.383 46.5307  16
  -6  -5  -2 304.178 41.1504  46
  -6  -5  -2 346.940 47.7662  45
  -6  -5  -2 300.046 42.0962  15
  -6  -5  -2 290.184 43.9000  39
  -6  -5  -3 674.093 56.0807  38
   6   5   3 612.391 62.1835  36
   6   5   3 644.355 71.0240  49
   6   5   3 701.584 73.9115  16
  -6  -5  -3 662.355 59.0638  46
  -6  -5  -3 700.326 62.9231  45
  -6  -5  -3 605.398 60.2309  39
  -6  -5  -4 1284.85 76.2113  38
   6   5   4 1194.95 82.8027  36
   6   5   4 1344.54 92.0034  49
   6   5   4 1405.40 97.6394  16
  -6  -5  -4 1432.50 84.0163  46
  -6  -5  -4 1396.56 86.2633  45
  -6  -5  -4 1304.59 83.0444  39
  -6  -5  -5 94.8966 21.6414  38
   6   5   5 105.971 29.6770  36
   6   5   5 69.9572 23.9098  49
   6   5   5 94.2018 33.0156  16
  -6  -5  -5 69.9334 21.4049  46
  -6  -5  -5 49.3652 19.2875  45
  -6  -5  -5 98.3215 24.3600  39
  -6  -5  -6 10.0811 11.7979  38
   6   5   6 11.5861 18.2393  36
   6   5   6-9.43955 14.5182  49
   6   5   6 13.8679 18.4114  16
  -6  -5  -6-24.0202 21.8130  46
  -6  -5  -6-9.83708 20.6346  45
  -6  -5  -6 7.87555 15.4333  39
  -6  -5  -7 858.773 51.4580  38
   6   5   7 982.048 61.6286  36
   6   5   7 868.890 58.2756  16
   6   5   7 833.556 52.1125  49
  -6  -5  -7 981.216 57.1274  46
  -6  -5  -7 888.523 54.6359  45
  -6  -5  -8 99.6680 16.0169  38
  -6  -5  -8 90.5866 16.6577  46
  -6  -6  14 2029.03 75.5035  14
  -6  -6  13 204.474 34.9656  14
  -6  -6  12 3815.37 132.471  27
  -6  -6  12 3187.83 127.143  14
  -6  -6  11 2193.00 106.235  27
  -6  -6  11 1683.42 97.8549  14
  -6  -6  10 7911.18 216.586  27
  -6  -6  10 6980.84 215.055  14
  -6  -6   9 1512.95 94.8745  27
  -6  -6   9 1401.83 96.4545  14
  -6  -6   8 10075.7 248.176  17
  -6  -6   8 10163.3 250.294  15
  -6  -6   8 10585.3 277.098  14
  -6  -6   7 1046.12 76.8663  17
  -6  -6   7 1150.34 81.8799  15
  -6  -6   7 1120.05 85.7079  14
  -6  -6   6 1264.49 85.8464  15
  -6  -6   6 1347.75 92.8317  14
  -6  -6   5 772.326 67.8762  15
  -6  -6   5 843.400 71.2595  14
  -6  -6   4 385.856 51.0110  15
  -6  -6   4 429.656 51.1468  14
  -6  -6   4 356.454 46.6417  39
   6   6  -3 7472.76 232.127  16
  -6  -6   3 6993.83 216.486  15
  -6  -6   3 7003.15 213.889  39
   6   6  -2 70.7838 28.8609  16
  -6  -6   2 43.3894 21.8826  45
  -6  -6   2 40.6043 25.3330  15
  -6  -6   2 57.4455 23.8868  39
   6   6  -1 73.6628 31.6931  16
  -6  -6   1 97.8409 28.6039  45
  -6  -6   1 106.000 31.3702  15
  -6  -6   1 76.7529 28.6184  39
   6   6   0 11107.6 294.621  16
  -6  -6   0 11904.3 286.040  15
  -6  -6   0 11697.1 283.681  45
  -6  -6   0 11320.3 281.335  39
   6   6   1 103.223 40.5823  49
   6   6   1 85.1747 31.3831  16
  -6  -6  -1 101.501 26.3130  46
  -6  -6  -1 100.632 28.4795  45
  -6  -6  -1 55.4917 26.4448  39
   6   6   2 3077.59 149.663  49
   6   6   2 2944.22 138.663  16
  -6  -6  -2 2914.64 121.645  46
  -6  -6  -2 2954.25 128.506  45
  -6  -6  -2 2941.89 128.777  39
   6   6   3 14.7793 22.3669  49
  -6  -6  -3 17.9015 15.3118  38
   6   6   3 8.61876 16.9902  36
   6   6   3 5.71716 21.9532  16
  -6  -6  -3 8.94363 17.3568  46
  -6  -6  -3-18.6160 23.4592  45
  -6  -6  -3 22.4899 16.6178  39
  -6  -6  -4 478.878 43.5526  38
   6   6   4 527.536 51.2689  36
   6   6   4 506.896 55.6311  16
   6   6   4 491.782 53.1867  49
  -6  -6  -4 442.959 43.2262  46
  -6  -6  -4 459.829 46.7119  45
   6   6   4 526.635 49.2025  42
  -6  -6  -4 477.768 48.5595  39
  -6  -6  -5 862.608 54.9904  38
   6   6   5 826.649 57.7426  36
   6   6   5 839.909 63.5248  16
   6   6   5 752.043 58.1276  49
  -6  -6  -5 742.844 52.6299  46
  -6  -6  -5 840.423 58.2479  45
  -6  -6  -6 265.434 27.4661  38
   6   6   6 330.828 33.8930  36
   6   6   6 326.344 35.8324  16
   6   6   6 294.046 32.4644  49
  -6  -6  -6 248.623 28.6210  46
  -6  -6  -6 276.906 30.5813  45
  -6  -6  -7 55.5908 13.0149  46
  -6  -7  13 97.9021 26.0727  14
  -6  -7  12 2587.53 107.497  14
  -6  -7  11 1574.82 89.6450  14
  -6  -7  10 280.321 40.7893  14
  -6  -7   9 250.669 40.4718  14
  -6  -7   8 1428.57 86.2613  17
  -6  -7   8 1442.03 86.1626  15
  -6  -7   8 1410.45 91.5336  14
  -6  -7   7 1377.03 88.0833  17
  -6  -7   7 1339.10 87.2826  15
  -6  -7   7 1414.31 92.9543  14
  -6  -7   6 18279.0 369.514  17
  -6  -7   6 17899.3 361.138  15
  -6  -7   6 17521.4 358.167  14
  -6  -7   5 10890.4 271.675  17
  -6  -7   5 10756.4 266.010  15
  -6  -7   5 10480.5 254.629  14
  -6  -7   4 4450.99 165.350  17
  -6  -7   4 4391.99 162.863  15
  -6  -7   3 202.639 39.6126  15
   6   7  -3 284.753 99.6025  49
  -6  -7   3 162.019 33.7647  39
   6   7  -2 3085.33 196.548  49
   6   7  -2 2883.86 132.622  16
  -6  -7   2 2799.50 129.257  15
  -6  -7   2 2940.65 128.929  45
  -6  -7   2 2809.19 129.483  39
   6   7  -1 331.436 62.4065  49
  -6  -7   1 267.530 40.6592  17
   6   7  -1 249.367 41.7234  16
  -6  -7   1 257.514 40.0761  45
  -6  -7   1 236.570 39.4742  39
  -6  -7   0 1240.38 78.8614  17
   6   7   0 1337.14 88.3352  16
   6   7   0 1368.32 103.056  49
  -6  -7   0 1443.04 88.7531  45
   6   7   0 1474.29 92.2811  44
  -6  -7   0 1304.22 87.3187  39
  -6  -7  -1 9909.03 230.533  17
   6   7   1 9679.22 249.930  16
  -6  -7  -1 9966.37 231.844  46
  -6  -7  -1 10185.7 248.717  45
  -6  -7  -1 10149.5 248.300  39
   6   7   2 1421.36 87.2534  16
   6   7   2 1550.46 94.0146  49
  -6  -7  -2 1563.95 82.0859  46
  -6  -7  -2 1427.57 83.9700  45
  -6  -7  -2 1522.67 86.6969  39
  -6  -7  -3 923.624 57.0818  38
  -6  -7  -3 807.653 55.9494  11
   6   7   3 902.702 65.4706  16
   6   7   3 962.196 69.5446  49
  -6  -7  -3 850.243 58.7324  46
  -6  -7  -3 850.807 61.5450  45
   6   7   3 871.563 61.1478  42
  -6  -7  -4 392.922 35.9620  38
   6   7   4 373.456 41.4100  16
   6   7   4 384.649 41.2476  49
  -6  -7  -4 371.986 36.3827  46
  -6  -7  -4 399.309 40.5989  45
   6   7   4 376.042 35.5428  42
  -6  -7  -5 270.970 26.0800  38
   6   7   5 281.943 31.7552  16
   6   7   5 296.967 32.3042  49
  -6  -7  -5 291.159 29.2084  46
  -6  -7  -5 303.133 30.7339  45
  -6  -8  13 164.071 23.2889  14
  -6  -8  12 1018.61 62.5360  14
  -6  -8  11 5664.57 161.172  14
  -6  -8  10 487.305 48.8889  14
  -6  -8   9 2501.64 103.773  17
  -6  -8   9 2597.87 112.544  14
  -6  -8   8 238.729 38.7977  17
  -6  -8   8 162.051 32.0365  14
  -6  -8   7 14415.8 303.410  17
  -6  -8   7 13542.2 286.539  14
  -6  -8   6 68.6998 21.8058  11
  -6  -8   6 77.0474 26.6787  17
  -6  -8   6 10.4052 18.9579  14
  -6  -8   5 6.26249 16.0177  11
  -6  -8   5-1.44505 19.4895  17
  -6  -8   4 463.733 50.3804  11
  -6  -8   4 525.330 53.9820  17
   6   8  -4 637.372 88.2956  49
  -6  -8   3 212.635 35.4947  17
   6   8  -3 193.979 46.6556  49
  -6  -8   3 185.815 30.5167  45
  -6  -8   2 824.835 63.3935  17
   6   8  -2 892.641 80.9101  49
  -6  -8   2 870.009 65.8311  45
  -6  -8   1 4.81417 15.7368  11
  -6  -8   1 32.1998 18.5789  17
   6   8  -1 20.7267 15.6346  16
  -6  -8   1 25.0221 21.0296  45
   6   8  -1-44.8716 33.9267  49
   6   8  -1 1.97188 18.3411  44
  -6  -8   0 880.457 63.7820  11
  -6  -8   0 819.889 58.3331  17
   6   8   0 805.590 61.6405  16
   6   8   0 750.800 63.6051  49
  -6  -8   0 843.452 62.9628  45
   6   8   0 772.676 56.1954  44
   6   8   0 913.665 68.9317  42
  -6  -8  -1 351.234 39.0071  11
   6   8   1 383.877 45.2767  49
   6   8   1 291.336 36.5250  16
  -6  -8  -1 368.665 37.2174  46
  -6  -8  -1 377.957 41.7005  45
   6   8   1 304.510 39.0316  42
  -6  -8  -2 258.663 32.2122  11
   6   8   2 260.108 35.6916  49
   6   8   2 285.807 33.9680  16
  -6  -8  -2 292.210 32.0962  46
  -6  -8  -2 289.825 34.7452  45
   6   8   2 248.353 32.3122  42
  -6  -8  -3 12.6949 11.0990  11
   6   8   3 7.81860 14.5446  49
   6   8   3-15.8716 16.5032  16
  -6  -8  -3 28.4733 13.9349  46
  -6  -8  -3 32.4216 16.5118  45
   6   8   3 12.1681 11.0890  42
   6   8   4 310.561 28.3012  16
   6   8   4 380.457 32.7845  49
  -6  -8  -4 359.576 29.8612  45
  -6  -9  12-3.29895 12.8596  14
  -6  -9  11 2529.88 90.5712  14
  -6  -9  10 80.6766 26.6717  14
  -6  -9   9 9207.79 201.049  17
  -6  -9   9 9372.91 201.173  14
  -6  -9   8 1099.40 68.1543  17
  -6  -9   8 971.310 59.9361  14
  -6  -9   7 1866.27 92.9048  17
  -6  -9   6 626.534 52.0497  11
  -6  -9   6 649.258 56.1902  17
   6   9  -6 611.682 61.7646  49
   6   9  -6 582.406 43.4662  42
  -6  -9   5 373.341 42.1689  11
  -6  -9   5 364.672 43.6758  17
   6   9  -5 386.594 49.8373  49
   6   9  -5 335.939 37.9784  42
  -6  -9   4 2933.51 117.041  11
  -6  -9   4 2853.15 115.010  17
   6   9  -4 2939.63 129.315  49
   6   9  -4 3134.44 118.789  42
   6   9  -3 137.894 29.2175  49
  -6  -9   3 126.886 25.5610  11
  -6  -9   3 179.294 29.7910  17
  -6  -9   3 164.340 29.4621  45
   6   9  -3 250.664 41.9261  44
   6   9  -3 168.840 32.2556  42
  -6  -9   2 328.033 38.0191  11
  -6  -9   2 304.122 35.5943  17
   6   9  -2 223.946 32.5303  49
  -6  -9   2 289.835 35.0215  45
   6   9  -2 363.599 42.3520  44
   6   9  -2 382.485 43.7537  42
  -6  -9   1 735.962 53.2073  11
  -6  -9   1 733.099 50.5307  17
   6   9  -1 697.198 54.9364  49
  -6  -9   1 783.594 55.0872  45
   6   9  -1 697.806 50.3422  44
   6   9  -1 821.734 58.8626  42
  -6  -9   0 179.098 27.0316  11
  -6  -9   0 125.433 20.3137  17
   6   9   0 104.913 22.4295  49
   6   9   0 144.458 22.3514  16
  -6  -9   0 135.471 23.9004  45
   6   9   0 113.422 18.2433  44
   6   9   0 156.577 25.6023  42
  -6  -9  -1 37.5825 15.1189  11
   6   9   1 26.0096 15.2986  49
   6   9   1 15.4331 10.0336  16
  -6  -9  -1 32.9661 12.5516  45
   6   9   1 26.6506 12.8604  42
   6   9   2 12.8547 11.2666  49
  -6  -9  -2 21.0342 11.7327  45
  -6 -10   9 434.532 35.2448  17
  -6 -10   8 246.051 30.5445  17
  -6 -10   7 3519.85 113.824  17
  -6 -10   6 17.7077 13.6099  11
  -6 -10   6 8.86822 14.6342  17
   6  10  -6 56.8902 23.7621  44
  -6 -10   5 843.016 54.1862  11
  -6 -10   5 804.623 53.1980  17
   6  10  -5 763.540 45.2315  42
  -6 -10   4 25.2264 14.9410  11
  -6 -10   4 22.3129 13.2706  17
   6  10  -4 35.0279 15.8823  49
   6  10  -4 59.4182 20.3632  44
   6  10  -4 5.94568 11.6751  42
  -6 -10   3 267.659 30.7324  11
  -6 -10   3 205.149 25.5075  17
   6  10  -3 238.881 28.9146  49
   6  10  -3 286.330 32.4378  44
   6  10  -3 262.389 29.5469  42
  -6 -10   2 507.675 38.2351  11
  -6 -10   2 480.694 34.6655  17
   6  10  -2 505.554 38.1027  49
  -6 -10   2 509.662 37.4468  45
   6  10  -2 467.007 35.5667  44
   6  10  -2 527.854 40.4359  42
  -6 -10   1 124.847 19.6845  11
   6  10  -1 110.950 18.6373  49
  -6 -10   1 118.235 19.3245  45
   6  10  -1 108.958 18.3749  42
   7 -10  -1 1888.24 74.1361  47
  -7  10   1 1891.64 70.9362  41
   7 -10  -1 1901.38 73.1476  21
   7 -10   0 24.6798 16.3943  37
  -7  10   0 17.9029 10.6777  20
   7 -10   0 28.8251 16.5471  47
  -7  10   0 27.8372 13.9947  41
   7 -10   0 25.8740 15.6697  21
  -7  10  -1 6223.92 144.970  20
   7 -10   1 6107.28 155.801  37
   7 -10   1 6113.58 156.963  47
  -7  10  -1 6175.48 141.836  43
  -7  10  -1 6115.36 140.145  41
   7 -10   1 6072.37 151.205  21
   7 -10   2 14.5311 15.0550  37
  -7  10  -2 6.91281 10.6553  20
   7 -10   2 14.3886 14.5705  47
  -7  10  -2 11.9030 12.2698  43
  -7  10  -2 18.5569 10.6979  41
   7 -10   2 19.5217 15.0287  21
   7 -10   3 18.2671 14.2536  37
  -7  10  -3 16.6680 13.7825  20
   7 -10   3 19.2531 14.3353  47
  -7  10  -3 10.1095 12.5542  43
   7 -10   3 27.9774 15.0516  21
  -7  10  -4 1189.71 61.4706  20
   7 -10   4 1060.74 65.0986  37
   7 -10   4 1071.13 65.3735  47
  -7  10  -4 1116.47 60.2356  43
   7 -10   4 1065.85 58.9656  21
  -7  10  -4 1122.08 51.8928  39
  -7  10  -5 258.480 28.6759  20
   7 -10   5 249.095 26.7863  12
   7 -10   5 230.466 32.2207  37
   7 -10   5 219.958 30.1918  47
  -7  10  -5 274.245 30.2638  43
   7 -10   5 243.586 28.3293  21
  -7  10  -5 255.228 25.5738  39
  -7  10  -6 1468.57 62.9281  20
   7 -10   6 1370.18 61.5253  12
   7 -10   6 1453.05 72.3969  37
   7 -10   6 1393.55 71.2157  47
  -7  10  -6 1435.88 63.4364  43
  -7  10  -6 1421.17 59.8477  39
   7 -10   7 180.521 26.4348  37
   7 -10   7 165.244 21.4210  12
   7 -10   7 162.698 24.3684  47
  -7  10  -7 137.560 19.1987  43
  -7  10  -7 166.467 20.0593  39
   7 -10   8 2412.63 83.7835  37
   7 -10   8 2373.74 81.9487  47
  -7  10  -8 2410.24 72.2858  39
   7  -9  -3 6030.83 146.659  47
  -7   9   3 6146.35 148.313  41
   7  -9  -3 5817.16 138.647  40
   7  -9  -3 5787.27 146.815  21
   7  -9  -2 142.089 23.6996  37
   7  -9  -2 141.249 25.9527  47
  -7   9   2 147.186 25.2259  41
   7  -9  -2 114.372 21.9306  40
   7  -9  -2 127.081 25.3218  21
  -7   9   1 758.481 48.5726  20
   7  -9  -1 749.919 55.1017  37
   7  -9  -1 801.201 58.9244  47
  -7   9   1 713.087 47.4227  43
  -7   9   1 819.198 56.3915  41
   7  -9  -1 747.584 53.3581  40
   7  -9  -1 784.221 57.2956  21
  -7   9   0 338.330 36.1950  20
   7  -9   0 351.263 41.1996  37
   7  -9   0 396.684 44.6752  47
  -7   9   0 326.274 34.8190  43
  -7   9   0 350.537 38.1085  41
   7  -9   0 351.591 38.7201  40
   7  -9   0 350.440 41.0253  21
   7  -9   1 27.5285 17.2073  37
  -7   9  -1 34.5738 17.3630  20
   7  -9   1 45.1659 21.9843  47
  -7   9  -1 18.1271 14.0960  43
  -7   9  -1 32.3900 14.5078  41
   7  -9   1 54.7055 19.7503  40
   7  -9   1 9.65933 18.6126  21
   7  -9   2 151.346 28.5159  37
  -7   9  -2 160.230 27.7549  20
   7  -9   2 128.755 29.8118  47
  -7   9  -2 112.186 25.6936  43
  -7   9  -2 113.902 21.8749  41
   7  -9   2 127.349 25.1217  40
   7  -9   2 128.391 28.1787  21
   7  -9   3 102.494 28.8971  37
  -7   9  -3 92.3477 22.9505  20
   7  -9   3 72.2538 24.9462  47
  -7   9  -3 87.2781 25.0381  43
   7  -9   3 70.9749 20.1714  40
  -7   9  -3 58.1580 17.2195  39
   7  -9   3 79.2083 26.0608  21
  -7   9  -4 1130.98 67.6911  20
   7  -9   4 1103.92 76.6699  37
   7  -9   4 1160.28 66.8761  12
   7  -9   4 1230.23 78.3522  47
  -7   9  -4 1182.76 69.2817  43
   7  -9   4 1066.71 65.0506  40
   7  -9   4 1149.45 73.3624  21
  -7   9  -4 1135.44 61.6093  39
  -7   9  -5 1012.68 61.7397  20
   7  -9   5 1132.83 76.2749  37
   7  -9   5 1071.44 64.6550  12
   7  -9   5 1021.53 71.9380  47
  -7   9  -5 1136.97 65.5224  43
   7  -9   5 986.124 60.2890  40
   7  -9   5 1093.45 69.8633  21
  -7   9  -5 1147.23 62.0049  39
   7  -9   6 125.047 28.7317  37
  -7   9  -6 146.322 24.9326  20
   7  -9   6 151.966 26.2714  12
  -7   9  -6 182.845 23.6560  48
   7  -9   6 151.660 30.2566  47
  -7   9  -6 182.903 26.5867  43
  -7   9  -6 138.680 23.3613  39
   7  -9   6 133.575 25.5750  21
  -7   9  -7 4408.39 117.848  20
   7  -9   7 4547.57 133.688  12
   7  -9   7 4531.35 145.767  37
  -7   9  -7 4585.56 116.069  48
   7  -9   7 4556.03 146.405  47
  -7   9  -7 4400.56 121.226  43
   7  -9   7 4442.67 130.552  21
  -7   9  -7 4656.81 125.221  39
   7  -9   8 11.3759 14.4357  37
   7  -9   8 18.9830 14.7062  12
  -7   9  -8 44.2695 14.5962  48
   7  -9   8 7.42687 12.8312  47
  -7   9  -8 3.41385 8.31289  43
  -7   9  -8 22.9959 12.4355  39
   7  -9   9 894.598 50.0092  12
   7  -9   9 880.716 54.2557  37
  -7   9  -9 952.751 45.2534  48
   7  -9   9 938.745 55.8335  47
  -7   9  -9 986.367 47.7568  39
   7  -8  -5 169.201 23.9736  47
  -7   8   5 200.866 25.4941  41
   7  -8  -5 167.423 24.2143  40
   7  -8  -5 171.895 25.2955  21
   7  -8  -4 5075.39 144.046  47
  -7   8   4 5175.65 147.980  41
   7  -8  -4 5135.60 144.416  40
   7  -8  -4 5187.79 150.547  21
   7  -8  -3 3939.14 130.788  37
   7  -8  -3 3727.76 130.937  47
  -7   8   3 3930.31 135.025  41
   7  -8  -3 3837.39 132.065  40
   7  -8  -3 3898.11 135.896  21
  -7   8   2 919.273 58.0602  20
   7  -8  -2 974.390 67.5945  37
   7  -8  -2 888.501 66.7388  47
  -7   8   2 887.113 58.6035  43
  -7   8   2 961.333 67.8016  41
   7  -8  -2 948.035 67.0234  40
   7  -8  -2 935.588 68.9630  21
   7  -8  -1 231.703 35.5030  37
  -7   8   1 276.000 35.0020  20
   7  -8  -1 273.852 39.2131  47
  -7   8   1 240.857 33.1079  43
  -7   8   1 248.370 35.6351  41
   7  -8  -1 251.856 38.1725  40
   7  -8  -1 257.385 40.4993  21
  -7   8   0 424.106 45.8250  20
   7  -8   0 370.653 45.5290  37
   7  -8   0 417.968 49.2535  47
  -7   8   0 395.576 44.1067  43
  -7   8   0 415.714 44.7342  41
   7  -8   0 367.651 45.7088  40
   7  -8   0 412.826 50.4257  21
  -7   8  -1 7553.91 202.095  20
   7  -8   1 7337.09 215.979  37
   7  -8   1 7185.23 213.306  47
  -7   8  -1 7818.54 206.830  43
  -7   8  -1 7146.43 192.751  41
   7  -8   1 7330.74 209.442  40
   7  -8   1 7393.56 216.443  21
  -7   8  -2 4300.44 149.302  20
   7  -8   2 4136.27 161.460  37
   7  -8   2 4031.73 158.789  47
  -7   8  -2 4405.99 152.628  43
  -7   8  -2 4033.69 134.861  41
   7  -8   2 4158.13 154.378  40
   7  -8   2 4234.99 162.489  21
  -7   8  -2 4072.42 126.788  39
  -7   8  -3 15548.5 311.239  20
   7  -8   3 15262.0 336.419  37
   7  -8   3 15306.9 336.045  47
  -7   8  -3 15968.8 316.530  43
   7  -8   3 14975.4 319.731  40
   7  -8   3 15766.3 338.831  21
  -7   8  -3 15178.4 286.800  39
  -7   8  -4 2138.82 100.523  20
   7  -8   4 2210.27 116.800  37
   7  -8   4 2164.04 102.283  12
  -7   8  -4 2168.81 87.8724  48
   7  -8   4 2081.79 113.091  47
  -7   8  -4 2272.70 104.451  43
   7  -8   4 2128.23 106.867  40
   7  -8   4 2303.13 116.021  21
  -7   8  -4 2090.20 93.1669  39
  -7   8  -5 768.630 58.1136  20
   7  -8   5 817.421 71.0111  37
   7  -8   5 771.610 61.0645  12
  -7   8  -5 742.124 51.1499  48
   7  -8   5 690.293 64.5524  47
  -7   8  -5 776.045 60.0402  43
   7  -8   5 813.368 64.6731  40
   7  -8   5 660.674 61.4987  21
  -7   8  -5 745.605 55.1695  39
  -7   8  -6 1975.96 88.4783  20
   7  -8   6 1991.12 97.4763  12
   7  -8   6 1982.09 106.575  37
  -7   8  -6 1908.07 81.8491  48
   7  -8   6 1972.30 107.011  47
  -7   8  -6 2136.89 93.3079  43
   7  -8   6 1938.62 96.7717  40
   7  -8   6 1927.72 101.619  21
  -7   8  -6 1979.34 88.9472  39
  -7   8  -7 1358.40 67.8065  20
   7  -8   7 1406.87 79.9302  12
   7  -8   7 1447.61 88.4486  37
  -7   8  -7 1328.53 65.8593  48
   7  -8   7 1405.86 85.3304  47
  -7   8  -7 1380.44 70.0566  43
   7  -8   7 1288.78 74.1463  40
   7  -8   7 1356.37 80.8593  21
  -7   8  -7 1399.55 71.3691  39
   7  -8   8 281.476 38.4892  37
   7  -8   8 229.480 33.2738  12
  -7   8  -8 216.525 25.8497  48
   7  -8   8 217.349 33.6329  47
  -7   8  -8 208.205 24.2481  43
   7  -8   8 209.214 28.3510  40
  -7   8  -8 224.008 28.2972  39
   7  -8   8 230.867 32.5140  21
   7  -8   9-14.7744 15.7967  37
   7  -8   9-5.35523 12.6577  12
  -7   8  -9-7.16155 9.95984  48
   7  -8   9 3.26309 13.9327  47
   7  -8   9 26.1212 13.7653  21
  -7   8  -9 15.9315 13.3742  39
   7  -8  10 866.376 50.4544  12
  -7   8 -10 833.338 43.5574  48
   7  -8  10 837.174 52.3906  47
  -7   8 -10 878.734 44.9136  45
   7  -8  10 762.686 41.6482  23
   7  -8  10 857.232 48.5038  22
  -7   8 -10 894.012 44.6732  39
   7  -7  -6-4.57044 14.6499  47
  -7   7   6 10.6986 8.10194  24
  -7   7   6-2.48216 14.8434  41
   7  -7  -6 24.6076 15.3194  21
   7  -7  -5 94.4079 23.4530  47
  -7   7   5 70.4977 14.0623  24
  -7   7   5 76.1438 20.5947  41
   7  -7  -5 86.8858 21.8684  21
   7  -7  -4 10159.9 238.298  47
  -7   7   4 10487.6 245.334  41
   7  -7  -4 10684.8 253.447  21
   7  -7  -3 3726.91 140.136  37
   7  -7  -3 3688.13 142.192  47
  -7   7   3 3465.79 106.247  24
  -7   7   3 3489.94 127.343  43
  -7   7   3 3813.75 145.303  41
   7  -7  -3 3915.90 151.460  21
  -7   7   2 698.822 57.5533  20
   7  -7  -2 747.734 64.9175  37
   7  -7  -2 729.140 64.8967  47
  -7   7   2 713.166 59.2932  43
  -7   7   2 796.898 66.1790  41
   7  -7  -2 805.639 69.5920  21
  -7   7   1 6216.68 186.288  20
   7  -7  -1 6024.14 195.356  37
   7  -7  -1 5970.54 197.648  47
  -7   7   1 6397.66 192.305  43
  -7   7   1 6213.45 191.915  41
   7  -7  -1 6398.12 202.641  40
   7  -7  -1 6505.50 207.519  21
  -7   7   0 1203.99 80.5869  20
   7  -7   0 1163.57 86.0690  37
   7  -7   0 1317.50 91.1036  47
  -7   7   0 1305.53 85.1752  43
  -7   7   0 1229.16 81.1715  41
   7  -7   0 1205.51 88.8624  40
   7  -7   0 1286.47 94.4232  21
  -7   7  -1 7649.37 216.297  20
   7  -7   1 7717.66 233.258  37
   7  -7   1 7494.00 228.820  47
  -7   7  -1 7873.75 221.079  43
  -7   7  -1 7408.06 205.595  41
   7  -7   1 7847.81 232.706  40
   7  -7   1 7902.15 237.793  21
  -7   7  -2 12745.9 287.816  20
   7  -7   2 12566.4 310.312  37
   7  -7   2 11978.0 303.636  47
  -7   7  -2 12984.2 292.613  43
   7  -7   2 12802.8 310.469  40
   7  -7   2 12683.3 313.338  21
  -7   7  -2 12353.9 258.399  39
  -7   7  -3 6087.30 187.841  20
   7  -7   3 6118.57 210.300  37
   7  -7   3 5944.16 188.765  36
  -7   7  -3 5985.17 164.829  48
   7  -7   3 6295.71 209.714  47
  -7   7  -3 6272.33 189.603  43
   7  -7   3 6042.81 202.957  40
   7  -7   3 6411.79 212.670  21
  -7   7  -3 6040.87 172.853  39
  -7   7  -4 8852.23 227.909  20
   7  -7   4 8973.88 258.955  37
   7  -7   4 8685.44 229.646  12
   7  -7   4 8399.79 225.981  36
  -7   7  -4 8795.14 207.459  48
   7  -7   4 8728.29 251.631  47
  -7   7  -4 9033.80 228.753  43
   7  -7   4 9009.90 249.261  40
   7  -7   4 9146.23 257.562  21
  -7   7  -4 9091.49 219.369  39
  -7   7  -5 666.074 56.7699  20
   7  -7   5 646.562 60.6168  12
   7  -7   5 628.278 64.5305  37
  -7   7  -5 651.203 52.0615  48
   7  -7   5 507.853 56.6710  47
  -7   7  -5 650.877 56.8333  43
   7  -7   5 613.440 65.8523  40
   7  -7   5 637.312 65.2150  21
  -7   7  -5 630.790 53.8434  39
  -7   7  -6 363.875 41.3711  20
   7  -7   6 228.328 40.1336  37
   7  -7   6 329.156 44.0074  12
  -7   7  -6 293.278 34.7797  48
   7  -7   6 311.500 47.0320  47
  -7   7  -6 283.228 35.3799  43
   7  -7   6 279.537 43.2401  40
  -7   7  -6 323.052 38.8991  39
   7  -7   6 349.321 48.2328  21
  -7   7  -7 452.089 41.1629  20
   7  -7   7 385.057 45.9633  12
   7  -7   7 453.802 53.5348  37
  -7   7  -7 410.308 39.0472  48
   7  -7   7 362.349 48.9852  47
  -7   7  -7 383.376 38.2090  43
   7  -7   7 422.890 48.9146  40
   7  -7   7 447.654 52.0319  21
  -7   7  -7 431.522 43.0785  39
   7  -7   8 241.416 40.4736  37
   7  -7   8 290.494 40.2300  12
  -7   7  -8 258.777 32.7110  48
   7  -7   8 256.352 40.1382  47
   7  -7   8 276.216 39.7911  40
  -7   7  -8 225.579 30.2359  39
   7  -7   8 281.771 40.6602  21
   7  -7   9 5805.19 163.840  12
   7  -7   9 6185.07 180.118  37
  -7   7  -9 6118.77 145.701  48
   7  -7   9 6128.52 175.832  47
   7  -7   9 5919.61 161.014  22
   7  -7   9 5849.58 160.163  40
   7  -7   9 5962.28 168.294  21
  -7   7  -9 5945.61 150.186  39
   7  -7  10 77.3833 21.5505  12
  -7   7 -10 72.6979 17.0338  48
   7  -7  10 60.4421 20.3302  47
  -7   7 -10 50.0477 15.4651  45
   7  -7  10 65.2033 15.9815  23
   7  -7  10 54.3731 16.7860  22
   7  -7  10 42.0910 14.6674  40
   7  -7  10 38.9216 15.0203  21
  -7   7 -10 76.2750 17.5966  39
   7  -7  11 163.132 21.7187  12
  -7   7 -11 147.366 17.8460  45
   7  -7  11 148.969 20.2052  22
  -7   6   8 3242.11 82.1683  24
  -7   6   7 31.1863 11.7785  24
   7  -6  -7 45.3127 21.7733  21
   7  -6  -6 637.154 53.3234  47
  -7   6   6 592.685 41.3017  24
  -7   6   6 639.919 55.2317  41
   7  -6  -6 766.029 64.3850  21
   7  -6  -5 4675.61 157.492  47
  -7   6   5 4648.41 129.916  24
  -7   6   5 4743.15 163.993  41
   7  -6  -5 4961.44 174.268  21
   7  -6  -4 6355.94 194.708  47
  -7   6   4 6439.08 161.698  24
  -7   6   4 6029.80 180.306  43
  -7   6   4 6611.31 203.512  41
   7  -6  -4 6623.59 208.250  21
  -7   6   3 1449.22 89.7573  20
   7  -6  -3 1469.94 92.4962  47
  -7   6   3 1463.95 74.3923  24
  -7   6   3 1587.87 94.2353  43
  -7   6   3 1603.02 97.7099  41
   7  -6  -3 1682.84 104.500  21
  -7   6   2 7908.52 217.621  20
   7  -6  -2 7986.79 232.109  47
  -7   6   2 7709.27 186.879  24
  -7   6   2 8095.01 229.127  43
  -7   6   2 8107.03 231.031  41
   7  -6  -2 8214.92 243.672  21
  -7   6   1 7423.13 213.986  20
   7  -6  -1 7171.44 221.377  37
   7  -6  -1 7433.99 227.512  47
  -7   6   1 7727.34 224.038  43
  -7   6   1 7508.76 221.160  41
   7  -6  -1 7763.95 239.886  21
  -7   6   0 14256.2 318.376  20
   7  -6   0 13802.3 330.401  37
   7  -6   0 14129.1 332.905  47
  -7   6   0 14968.1 329.951  43
  -7   6   0 14531.7 318.602  41
   7  -6   0 15267.0 350.382  40
   7  -6   0 14709.5 349.837  21
  -7   6  -1 4820.74 171.364  20
   7  -6   1 4690.92 181.242  37
   7  -6   1 4757.45 182.238  47
  -7   6  -1 4839.21 172.160  43
  -7   6  -1 4873.11 165.825  41
   7  -6   1 5063.67 190.333  40
   7  -6   1 4874.17 189.836  21
  -7   6  -2 2415.37 118.112  20
   7  -6   2 2384.29 128.515  37
  -7   6  -2 2359.20 104.083  48
   7  -6   2 2386.77 128.753  47
  -7   6  -2 2304.20 116.092  43
   7  -6   2 2441.63 133.059  40
   7  -6   2 2432.74 133.048  21
  -7   6  -2 2310.30 103.818  39
   7  -6   3 3.25517 20.7567  37
  -7   6  -3 7.98860 20.4549  20
   7  -6   3 49.3970 25.1913  36
  -7   6  -3 29.8941 19.7615  48
   7  -6   3 5.40762 24.2883  47
  -7   6  -3 2.92392 17.4170  43
   7  -6   3 29.9643 24.4598  40
  -7   6  -3-6.60686 16.6388  39
   7  -6   3 1.12242 22.8241  21
  -7   6  -4 747.895 63.9815  20
   7  -6   4 753.774 65.1795  12
   7  -6   4 760.905 75.2732  37
   7  -6   4 800.123 69.8777  36
  -7   6  -4 692.492 54.9540  48
   7  -6   4 781.204 73.1081  47
  -7   6  -4 741.960 63.7746  43
   7  -6   4 681.028 69.1875  40
   7  -6   4 747.719 73.7856  21
  -7   6  -4 725.043 59.8319  39
  -7   6  -5 530.600 53.5612  20
   7  -6   5 514.255 55.1635  12
   7  -6   5 496.949 59.5737  37
   7  -6   5 500.547 53.7017  36
  -7   6  -5 485.116 46.1537  48
   7  -6   5 494.647 57.9711  47
  -7   6  -5 521.169 51.4001  43
   7  -6   5 542.412 63.8184  40
   7  -6   5 548.411 63.5031  21
  -7   6  -5 482.208 50.3087  39
  -7   6  -6 731.054 58.1889  20
   7  -6   6 782.167 66.6420  12
   7  -6   6 769.075 72.6149  37
  -7   6  -6 737.679 56.3317  48
   7  -6   6 801.115 72.3676  47
  -7   6  -6 723.180 56.4165  43
   7  -6   6 739.737 71.8150  40
   7  -6   6 711.005 69.8386  21
  -7   6  -6 758.836 60.0705  39
   7  -6   7 390.309 47.6748  12
   7  -6   7 424.243 56.2282  37
  -7   6  -7 403.356 42.4058  48
   7  -6   7 403.193 53.5606  47
   7  -6   7 444.283 55.4976  40
  -7   6  -7 426.402 43.5277  39
   7  -6   7 416.792 51.0040  21
   7  -6   8 2088.23 104.009  12
   7  -6   8 1991.88 109.385  37
  -7   6  -8 2023.56 88.7340  48
   7  -6   8 1948.50 106.689  47
   7  -6   8 1992.11 105.984  40
   7  -6   8 2059.31 109.196  21
  -7   6  -8 2120.26 94.2945  39
   7  -6   9 24.0600 17.9542  37
   7  -6   9 29.0554 17.2639  12
  -7   6  -9 37.2191 15.8685  48
   7  -6   9 52.5242 21.3504  47
  -7   6  -9 62.7149 18.9313  45
   7  -6   9 47.8192 20.4432  22
   7  -6   9 43.8835 19.9085  40
   7  -6   9 27.6205 18.7577  21
  -7   6  -9 71.4158 19.3035  39
   7  -6  10 18.7211 15.3453  12
  -7   6 -10 9.72460 11.9671  48
   7  -6  10 5.60569 14.7598  47
  -7   6 -10 21.2425 14.0200  45
   7  -6  10 5.52572 9.96654  23
   7  -6  10-8.87054 15.1527  22
   7  -6  10-2.96980 12.5658  40
   7  -6  10 4.11830 15.2557  21
  -7   6 -10 13.9711 12.2468  39
  -7   6 -11 1560.24 58.0182  48
  -7   6 -11 1650.02 62.0907  45
   7  -6  11 1639.39 68.3351  22
   7  -6  11 1504.58 65.0019  40
   7  -6  11 1614.88 68.1941  21
   7  -6  11 1716.69 71.7525  12
  -7   5   9 4745.09 108.894  24
  -7   5   8 138.046 22.3827  27
  -7   5   8 194.671 25.6664  24
  -7   5   7 2782.64 97.5534  24
  -7   5   7 2742.81 117.699  41
   7  -5  -7 2951.49 133.653  21
  -7   5   6 572.769 45.9120  24
  -7   5   6 507.388 54.5296  41
   7  -5  -6 615.778 62.1790  21
  -7   5   5 1646.42 80.9762  24
  -7   5   5 1555.66 89.7209  43
  -7   5   5 1622.21 100.250  41
   7  -5  -5 1693.36 103.944  21
  -7   5   4 4870.72 147.665  24
  -7   5   4 4937.20 174.030  43
  -7   5   4 4932.07 180.000  41
   7  -5  -4 5064.46 187.511  21
  -7   5   3 786.828 66.0422  20
   7  -5  -3 762.990 67.8139  47
  -7   5   3 827.157 59.1628  24
  -7   5   3 747.106 69.1385  43
  -7   5   3 695.177 66.9464  41
   7  -5  -3 804.851 75.3149  21
  -7   5   2 329.299 44.5194  20
   7  -5  -2 339.853 48.3174  47
  -7   5   2 332.180 39.4381  24
  -7   5   2 345.354 48.1518  43
  -7   5   2 470.238 55.7882  41
   7  -5  -2 357.013 53.4760  21
  -7   5   1 655.961 62.1153  20
   7  -5  -1 759.707 70.8234  47
  -7   5   1 695.986 56.8680  24
  -7   5   1 816.921 71.3909  43
  -7   5   1 703.329 66.8280  41
   7  -5  -1 734.449 74.3261  21
  -7   5   0 20278.1 398.266  20
   7  -5   0 19469.2 406.394  37
   7  -5   0 20155.7 415.015  47
  -7   5   0 21066.7 407.505  43
  -7   5   0 20875.6 401.152  41
   7  -5   0 21743.3 441.247  40
   7  -5   0 21471.6 441.434  21
   7  -5   1 256.345 40.8724  37
  -7   5  -1 305.272 44.1806  20
  -7   5  -1 341.169 41.9464  48
   7  -5   1 318.714 46.7560  47
  -7   5  -1 337.116 47.4549  43
  -7   5  -1 303.884 41.4354  41
   7  -5   1 316.209 50.3878  40
  -7   5  -1 287.315 36.1928  39
   7  -5   1 358.512 51.8765  21
   7  -5   2 203.100 40.7761  37
  -7   5  -2 204.887 34.0231  20
  -7   5  -2 209.795 34.2679  48
   7  -5   2 150.754 32.8375  47
  -7   5  -2 172.527 33.4103  43
   7  -5   2 173.320 37.6051  40
  -7   5  -2 220.874 34.3863  39
   7  -5   2 185.228 40.0756  21
  -7   5  -3 5896.75 188.579  20
   7  -5   3 5590.86 203.732  37
   7  -5   3 5760.41 202.014  36
  -7   5  -3 5870.93 175.054  48
   7  -5   3 5407.45 197.509  47
  -7   5  -3 5821.94 186.500  43
   7  -5   3 6013.08 215.516  40
   7  -5   3 5989.96 215.405  21
  -7   5  -3 5683.90 176.218  39
  -7   5  -4 3675.77 143.638  20
   7  -5   4 3525.30 144.595  12
   7  -5   4 3537.24 160.114  37
   7  -5   4 3534.19 156.375  36
  -7   5  -4 3604.00 132.750  48
   7  -5   4 3454.97 155.231  47
  -7   5  -4 3605.96 139.445  43
   7  -5   4 3542.20 163.098  40
   7  -5   4 3620.02 165.543  21
  -7   5  -4 3653.41 138.663  39
   7  -5   5 49.6862 23.0151  37
  -7   5  -5 67.6364 21.4472  20
   7  -5   5 63.3085 26.0841  12
   7  -5   5 48.2867 25.0262  36
  -7   5  -5 1.30399 28.0590  48
   7  -5   5 49.5866 22.3634  47
  -7   5  -5 58.2694 20.2437  43
   7  -5   5 90.8659 33.1293  40
  -7   5  -5 28.8708 19.3138  39
   7  -5   5 35.7780 26.6920  21
  -7   5  -6 1831.97 93.0913  20
   7  -5   6 1704.93 101.287  12
   7  -5   6 1957.82 117.251  37
   7  -5   6 1861.30 107.765  36
  -7   5  -6 1830.31 91.8386  48
   7  -5   6 1827.61 109.687  47
   7  -5   6 1971.22 119.757  40
   7  -5   6 2012.28 120.484  21
  -7   5  -6 1924.84 97.7244  39
   7  -5   7-12.3487 21.9519  37
   7  -5   7 6.29062 18.2622  12
  -7   5  -7-23.4268 23.0190  48
   7  -5   7-3.92790 17.0877  47
   7  -5   7 22.3920 24.5586  40
  -7   5  -7 1.98728 18.2897  39
   7  -5   7 15.2149 24.4858  21
   7  -5   8 255.308 41.2662  37
   7  -5   8 233.209 37.6618  12
  -7   5  -8 224.769 30.2880  48
   7  -5   8 234.793 39.3770  47
  -7   5  -8 252.241 33.5678  45
   7  -5   8 208.451 34.4110  22
   7  -5   8 260.718 42.0669  40
  -7   5  -8 218.656 32.2798  39
   7  -5   8 244.712 41.4773  21
   7  -5   9 55.9790 20.3365  12
  -7   5  -9 43.9727 15.5868  48
   7  -5   9 47.2036 19.4695  47
  -7   5  -9 71.6982 19.8780  45
   7  -5   9 57.3789 20.3762  22
   7  -5   9 60.8918 22.9217  40
   7  -5   9 118.764 31.7869  21
  -7   5  -9 64.7434 18.3588  39
  -7   5 -10 801.727 48.1037  48
  -7   5 -10 783.711 49.8016  45
   7  -5  10 777.794 54.3444  22
   7  -5  10 766.688 59.1952  40
   7  -5  10 790.132 60.3093  21
  -7   5 -10 722.889 46.7682  39
   7  -5  10 762.743 55.4945  12
   7  -5  11 129.964 22.5433  12
  -7   5 -11 101.060 15.9625  48
  -7   5 -11 110.075 17.5507  45
   7  -5  11 113.545 20.6642  22
   7  -5  11 120.698 22.3970  40
   7  -5  11 138.314 23.8612  21
  -7   4  10 40.1012 12.7563  27
  -7   4  10 49.3954 13.4158  24
  -7   4   9 1892.99 83.7179  27
  -7   4   9 2017.69 76.6691  24
  -7   4   8 3351.83 121.309  27
  -7   4   8 3656.73 114.667  24
  -7   4   7 67.0834 19.9836  27
  -7   4   7 85.1951 23.5502  24
  -7   4   7 70.9225 25.1488  41
  -7   4   6 3265.43 118.053  24
  -7   4   6 2993.87 127.877  43
  -7   4   6 3387.93 146.659  41
   7  -4  -6 3241.71 143.879  21
  -7   4   5 33.2922 18.8096  24
  -7   4   5-3.05271 20.0720  43
  -7   4   5 41.0527 21.9216  41
   7  -4  -5 9.60912 20.5767  21
  -7   4   4 6573.05 196.802  20
  -7   4   4 6789.65 183.422  24
  -7   4   4 6873.30 216.069  43
  -7   4   4 6864.45 216.841  41
   7  -4  -4 6652.26 218.516  21
  -7   4   3 2495.19 119.408  20
  -7   4   3 2615.30 109.609  24
  -7   4   3 2696.86 131.805  43
  -7   4   3 2512.18 127.873  41
   7  -4  -3 2571.91 133.711  21
  -7   4   2 477.972 52.2600  20
  -7   4   2 580.938 51.1121  24
  -7   4   2 442.170 53.2340  43
  -7   4   2 561.676 57.4311  41
   7  -4  -2 514.999 60.6703  21
  -7   4   1 21299.5 413.153  20
  -7   4   1 22369.6 382.619  24
  -7   4   1 21767.8 423.652  43
  -7   4   1 22692.6 427.084  41
   7  -4  -1 22605.6 458.521  40
   7  -4  -1 22065.7 448.874  21
  -7   4   0 1984.92 107.791  20
  -7   4   0 1970.38 108.696  43
  -7   4   0 2131.32 104.997  48
  -7   4   0 2089.40 110.043  41
   7  -4   0 2089.31 123.355  40
   7  -4   0 1927.96 118.784  21
  -7   4  -1 5297.76 181.684  20
  -7   4  -1 5315.88 170.072  48
  -7   4  -1 5064.96 178.062  43
  -7   4  -1 5181.18 171.094  41
   7  -4   1 5319.96 201.992  40
   7  -4   1 5276.96 198.779  21
  -7   4  -1 5201.44 161.960  39
  -7   4  -2 5400.53 181.849  20
   7  -4   2 5108.80 187.739  37
  -7   4  -2 5376.27 170.430  48
   7  -4   2 5331.76 188.605  47
  -7   4  -2 5521.74 181.118  43
   7  -4   2 5452.07 205.593  40
   7  -4   2 5579.20 206.096  21
  -7   4  -2 5225.18 167.212  39
  -7   4  -3 3264.06 137.426  20
   7  -4   3 3121.14 146.158  37
   7  -4   3 3244.71 151.918  36
  -7   4  -3 3140.11 127.324  48
   7  -4   3 2969.96 140.634  47
  -7   4  -3 3212.65 133.762  43
   7  -4   3 3272.19 157.044  40
   7  -4   3 3297.35 159.171  21
  -7   4  -3 3216.73 130.810  39
   7  -4   4 12.1017 18.1013  37
  -7   4  -4 17.5437 16.4276  20
   7  -4   4 19.6502 17.1369  12
   7  -4   4-5.92305 22.4204  36
  -7   4  -4-11.4676 24.4338  48
   7  -4   4 2.06248 18.0274  47
  -7   4  -4 10.2210 15.3658  43
   7  -4   4 10.7152 24.6257  40
  -7   4  -4-7.33057 22.9725  39
   7  -4   4 1.61202 27.2280  21
  -7   4  -5 11949.8 270.169  20
   7  -4   5 11422.3 282.762  12
   7  -4   5 11803.2 306.118  37
   7  -4   5 12044.4 309.270  36
  -7   4  -5 12133.5 265.217  48
   7  -4   5 11294.9 290.763  47
   7  -4   5 11962.6 317.811  40
   7  -4   5 12044.5 314.764  21
  -7   4  -5 12250.5 276.989  39
   7  -4   6 3890.47 154.606  12
   7  -4   6 3852.32 163.456  37
   7  -4   6 3824.12 162.094  36
  -7   4  -6 3911.40 139.397  48
   7  -4   6 3815.68 158.527  47
   7  -4   6 3828.34 169.541  40
   7  -4   6 3793.00 169.244  21
  -7   4  -6 3971.31 144.292  39
   7  -4   7 141.909 32.6566  37
   7  -4   7 153.606 32.3631  12
   7  -4   7 178.412 36.2342  36
  -7   4  -7 153.695 27.7224  48
   7  -4   7 141.747 31.7201  47
  -7   4  -7 150.637 27.0198  45
   7  -4   7 152.888 31.2709  22
   7  -4   7 217.109 43.1492  40
  -7   4  -7 166.665 29.5164  39
   7  -4   7 93.7117 28.5572  21
   7  -4   8 41.2187 21.8015  12
   7  -4   8 51.0256 22.9480  36
  -7   4  -8 29.0921 15.6770  48
   7  -4   8 65.5524 24.2707  47
  -7   4  -8 40.6886 14.3116  45
   7  -4   8 33.1790 17.7633  22
   7  -4   8 20.6388 21.0842  40
  -7   4  -8 30.7399 15.1471  39
   7  -4   8 12.9963 23.6756  21
  -7   4  -9 644.101 47.9333  48
   7  -4   9 551.803 53.9729  47
  -7   4  -9 691.956 52.2843  45
   7  -4   9 661.305 56.5003  22
   7  -4   9 590.014 57.9705  40
   7  -4   9 654.929 63.0555  21
  -7   4  -9 635.888 49.5324  39
   7  -4   9 616.751 55.3162  12
  -7   4 -10 956.143 52.0265  48
  -7   4 -10 1095.97 60.1499  45
   7  -4  10 990.187 62.5226  22
   7  -4  10 1032.01 69.6784  40
   7  -4  10 1023.77 71.0595  21
  -7   4 -10 969.312 54.0587  39
   7  -4  10 1039.29 65.3852  12
  -7   4 -11 262.773 25.7635  45
   7  -4  11 271.262 28.8764  22
   7  -4  11 253.173 31.7019  40
   7  -4  11 282.711 33.1966  21
  -7   3  11 1178.79 56.6245  27
  -7   3  11 1290.26 52.3228  24
  -7   3  10 1173.95 66.3655  27
  -7   3  10 1272.54 60.0802  24
  -7   3   9 1518.88 82.7953  27
  -7   3   9 1620.72 74.8135  24
  -7   3   8 1213.37 77.1930  27
  -7   3   8 1318.44 72.2257  24
  -7   3   7 281.355 38.6431  27
  -7   3   7 292.558 36.9944  24
  -7   3   6 47.8595 19.3540  24
  -7   3   6 46.1085 18.2146  43
  -7   3   6 49.3217 23.7939  41
  -7   3   5 103.029 25.5551  24
  -7   3   5 92.2495 28.9502  43
  -7   3   5 109.316 29.8044  41
   7  -3  -5 145.886 30.1551  21
  -7   3   4 354.699 44.9967  20
  -7   3   4 397.833 44.0546  24
  -7   3   4 360.215 48.9563  43
  -7   3   4 368.855 51.3356  41
   7  -3  -4 351.653 48.8424  21
  -7   3   3 988.691 75.5687  20
  -7   3   3 1041.62 68.2197  24
  -7   3   3 1082.54 82.8261  43
  -7   3   3 954.932 78.9217  41
   7  -3  -3 984.327 80.0276  21
  -7   3   2 3765.52 150.969  20
  -7   3   2 4019.55 138.000  24
  -7   3   2 3937.81 158.375  43
  -7   3   2 3875.56 158.351  41
   7  -3  -2 3689.76 159.572  21
  -7   3   1 8212.87 233.595  20
  -7   3   1 8765.47 230.700  48
  -7   3   1 8701.37 212.445  24
  -7   3   1 8689.01 241.112  43
  -7   3   1 8926.36 243.054  41
   7  -3  -1 8518.95 258.875  40
   7  -3  -1 8548.91 252.531  21
  -7   3   0 9617.59 254.289  20
  -7   3   0 9964.14 246.035  48
  -7   3   0 9942.31 257.182  43
  -7   3   0 9886.41 251.873  41
   7  -3   0 10187.6 285.307  40
   7  -3   0 9641.13 273.920  21
  -7   3   0 9583.63 226.771  39
  -7   3  -1 43986.2 667.242  20
  -7   3  -1 43620.8 646.129  48
  -7   3  -1 43837.5 660.994  43
   7  -3   1 44214.6 712.999  40
   7  -3   1 42910.1 698.043  21
  -7   3  -1 43062.6 629.358  39
  -7   3  -2 10545.7 263.981  20
   7  -3   2 10359.4 286.485  36
  -7   3  -2 10301.0 249.798  48
  -7   3  -2 10550.6 260.264  43
   7  -3   2 10276.8 291.537  40
   7  -3   2 10342.9 288.016  21
  -7   3  -2 10608.5 250.128  39
  -7   3  -3 207.904 35.9230  20
   7  -3   3 212.602 43.1046  36
  -7   3  -3 155.806 29.9703  48
  -7   3  -3 173.159 31.8310  43
   7  -3   3 96.3044 30.6174  40
  -7   3  -3 178.621 29.8413  39
   7  -3   3 274.095 49.6570  21
  -7   3  -4 6077.39 188.131  20
   7  -3   4 5633.33 182.096  12
   7  -3   4 5922.54 202.333  37
   7  -3   4 6316.60 219.707  36
  -7   3  -4 5814.62 179.824  48
   7  -3   4 5992.55 216.367  40
   7  -3   4 5904.75 214.086  21
  -7   3  -4 6079.43 185.458  39
   7  -3   5 12.8361 19.8513  37
  -7   3  -5 26.0879 17.1749  20
   7  -3   5 25.4292 19.3841  12
   7  -3   5 24.9996 25.0836  36
  -7   3  -5 41.9054 16.8272  48
   7  -3   5 1.58773 18.4308  47
  -7   3  -5 19.8770 17.1740  45
   7  -3   5 34.3772 28.9440  40
  -7   3  -5 10.3462 22.3024  39
   7  -3   5 24.1645 25.9680  21
   7  -3   6 362.558 49.9895  37
   7  -3   6 331.814 43.9862  12
   7  -3   6 397.050 58.4833  36
  -7   3  -6 421.254 45.8278  48
   7  -3   6 357.626 47.1181  47
  -7   3  -6 369.887 43.6512  45
   7  -3   6 331.186 45.2413  22
   7  -3   6 350.880 55.0055  40
  -7   3  -6 383.826 46.7011  39
   7  -3   6 373.999 54.3125  21
   7  -3   7 26.2762 18.8131  12
   7  -3   7 20.0708 22.4309  36
  -7   3  -7 14.1369 14.9163  48
   7  -3   7 34.4963 22.1955  47
  -7   3  -7 11.1534 17.1816  45
   7  -3   7 103.879 28.9746  22
   7  -3   7 38.3613 28.7796  40
  -7   3  -7 35.2724 18.9319  39
   7  -3   7 16.1799 23.4054  21
   7  -3   8 63.7981 24.4431  12
   7  -3   8 72.7955 25.3168  36
   7  -3   8 102.118 27.8936  47
  -7   3  -8 52.1200 18.7274  45
   7  -3   8 71.2678 23.0918  22
   7  -3   8 62.2342 27.5647  40
   7  -3   8 67.6140 30.2464  21
  -7   3  -8 72.1733 20.5350  39
  -7   3  -8 41.2121 13.8039  48
   7  -3   9 67.2879 23.1247  12
   7  -3   9 83.4495 26.1973  36
  -7   3  -9 58.9938 17.8817  48
  -7   3  -9 24.1601 13.3343  45
   7  -3   9 59.8611 22.4331  22
   7  -3   9 101.961 28.9715  40
   7  -3   9 86.1784 28.0057  21
  -7   3  -9 48.4505 14.9170  39
  -7   3 -10 180.855 25.2097  45
   7  -3  10 167.867 27.2987  22
   7  -3  10 199.093 32.5332  40
  -7   3 -10 206.972 25.3535  39
   7  -3  10 214.287 34.7898  21
   7  -3  10 190.768 30.1452  12
  -7   3 -11 59.7650 14.1848  45
   7  -3  11 69.2195 15.7506  22
   7  -3  11 44.9131 16.6144  40
  -7   2  11 604.991 45.8657  27
  -7   2  11 772.318 44.1252  24
  -7   2  10 2458.04 104.928  27
  -7   2  10 2723.25 95.1328  24
  -7   2   9 282.506 38.7302  27
  -7   2   9 312.478 36.1739  24
  -7   2   8 9.74262 16.0167  27
  -7   2   8 23.2184 17.2368  15
  -7   2   8 26.7734 15.9768  24
  -7   2   7 950.803 71.0751  27
  -7   2   7 966.987 64.9123  24
  -7   2   7 977.137 76.5810  43
  -7   2   6 3953.24 136.396  24
  -7   2   6 3973.09 162.687  43
  -7   2   5 19557.9 379.744  20
  -7   2   5 20052.0 358.992  24
  -7   2   5 19639.2 409.352  43
  -7   2   5 20964.1 418.168  41
  -7   2   4 21062.7 368.780  24
  -7   2   4 20675.7 419.810  43
  -7   2   4 21683.2 427.431  41
  -7   2   3 1172.85 82.8704  20
  -7   2   3 1207.50 73.1872  24
  -7   2   3 1199.24 87.6025  43
  -7   2   3 1203.35 88.2524  41
  -7   2   2 166.834 31.6275  20
  -7   2   2 163.696 29.9426  48
  -7   2   2 200.476 32.3923  24
  -7   2   2 182.882 34.2393  43
  -7   2   2 179.153 35.2033  41
   7  -2  -2 82.1111 23.5234  40
   7  -2  -2 214.221 39.4328  21
  -7   2   1 54.7963 22.0743  20
  -7   2   1 52.1704 25.3111  24
  -7   2   1 21.8323 16.9602  43
  -7   2   1 73.7097 21.4873  48
   7  -2  -1 50.1822 29.3361  21
  -7   2   0 42378.1 648.731  20
  -7   2   0 43526.8 638.661  48
  -7   2   0 41806.3 643.371  43
   7  -2   0 41975.1 679.019  40
   7  -2   0 41046.5 666.320  21
  -7   2   0 40829.5 604.629  39
  -7   2  -1 1128.84 81.6642  20
   7  -2   1 1068.16 88.8290  36
  -7   2  -1 1102.94 77.7274  48
  -7   2  -1 1127.52 80.2135  43
   7  -2   1 1116.21 89.3926  40
   7  -2   1 1170.23 89.7719  21
  -7   2  -1 1079.75 73.5038  39
  -7   2  -2 35973.8 571.718  20
   7  -2   2 35164.7 611.801  36
  -7   2  -2 35461.1 560.009  48
  -7   2  -2 36290.4 530.849  45
  -7   2  -2 35465.2 556.047  15
  -7   2  -2 34920.9 557.618  43
   7  -2   2 34944.5 611.045  40
   7  -2   2 34945.6 605.409  21
  -7   2  -2 35411.0 552.789  39
  -7   2  -3 42.8411 21.2204  20
   7  -2   3 22.7126 29.5558  36
  -7   2  -3 45.9639 22.4605  48
  -7   2  -3 13.0233 19.7728  45
   7  -2   3 90.1623 37.1218  40
  -7   2  -3 37.6949 19.5081  39
   7  -2   3 40.7131 23.1180  21
   7  -2   4 1584.76 91.3218  12
  -7   2  -4 1706.20 95.9738  20
   7  -2   4 1650.17 111.924  36
  -7   2  -4 1638.09 93.8125  48
  -7   2  -4 1668.34 89.5031  45
   7  -2   4 1538.10 90.8859  22
   7  -2   4 1662.32 111.517  40
   7  -2   4 1725.03 111.828  21
  -7   2  -4 1700.94 95.6955  39
   7  -2   5 259.484 41.5079  37
   7  -2   5 254.418 40.0083  12
   7  -2   5 302.502 52.7088  36
  -7   2  -5 259.754 36.5599  48
  -7   2  -5 255.439 37.0272  45
   7  -2   5 199.763 35.5570  22
   7  -2   5 233.714 44.4469  40
  -7   2  -5 302.242 40.7292  39
   7  -2   5 277.127 47.4388  21
   7  -2   6 173.937 34.1212  12
   7  -2   6 189.482 40.9461  36
  -7   2  -6 166.881 29.9938  48
  -7   2  -6 174.754 30.3598  45
   7  -2   6 183.750 32.6964  22
   7  -2   6 155.960 36.1884  40
  -7   2  -6 215.286 36.2362  39
   7  -2   6 212.480 43.7130  21
   7  -2   7 32.2022 23.5562  12
   7  -2   7 89.8802 32.0929  36
  -7   2  -7 33.7463 17.1317  45
   7  -2   7 39.8759 21.9040  22
   7  -2   7 28.3300 23.7255  40
  -7   2  -7 30.7365 17.3423  48
  -7   2  -7 48.2253 22.8425  39
   7  -2   7 49.8934 30.7947  21
   7  -2   8 1885.25 106.498  36
  -7   2  -8 1672.92 81.6766  48
  -7   2  -8 1966.74 93.2874  45
   7  -2   8 1802.14 94.8022  22
   7  -2   8 1885.64 108.251  40
   7  -2   8 1921.00 111.536  21
  -7   2  -8 1871.37 91.5148  39
   7  -2   8 1885.10 100.129  12
   7  -2   9 36.1620 19.8960  36
  -7   2  -9 49.2808 19.5016  45
   7  -2   9 90.7035 24.5347  22
   7  -2   9 47.7308 22.2753  40
   7  -2   9 57.5974 28.6428  21
  -7   2  -9 34.8172 14.1351  39
   7  -2   9 54.9078 22.3296  12
   7  -2  10 10.7543 12.8247  36
  -7   2 -10 21.3496 13.9243  45
   7  -2  10-10.0861 14.9654  22
   7  -2  10-0.38737 17.3299  40
   7  -2  10-23.3614 19.2947  21
  -7   2 -11 346.852 29.5280  46
  -7   2 -11 337.104 27.5171  45
   7  -2  11 305.047 29.3103  22
   7  -2  11 314.281 33.3411  40
  -7   1  12 2980.46 98.0854  27
  -7   1  12 3171.96 84.8582  24
  -7   1  11 25.6097 14.2279  27
  -7   1  11 29.4159 10.9677  24
  -7   1  10 3369.33 127.937  27
  -7   1  10 3664.05 115.057  24
  -7   1   9 8364.41 225.014  27
  -7   1   9 9240.14 205.021  24
  -7   1   8 2734.54 124.137  27
  -7   1   8 2474.13 114.763  15
  -7   1   8 2798.12 109.907  24
  -7   1   8 2733.46 126.977  43
  -7   1   7 21.8952 19.5053  27
  -7   1   7 10.8179 17.2634  15
  -7   1   7 24.1573 18.5350  24
  -7   1   7 25.8252 20.4275  43
  -7   1   6 2592.29 119.964  27
  -7   1   6 2588.46 107.518  24
  -7   1   6 2574.55 131.346  43
  -7   1   5 13483.2 302.975  20
  -7   1   5 13218.6 273.776  24
  -7   1   5 13419.0 324.387  43
  -7   1   4 336.751 45.6982  20
  -7   1   4 274.128 35.0960  24
  -7   1   4 267.314 43.3754  43
  -7   1   3 503.580 56.3870  20
  -7   1   3 717.701 65.0469  48
  -7   1   3 549.812 50.6567  24
  -7   1   3 531.698 60.3513  43
   7  -1  -3 535.434 58.1925  40
  -7   1   2 39104.2 621.141  20
  -7   1   2 40475.6 620.854  48
  -7   1   2 40430.0 574.395  24
  -7   1   2 39140.0 630.615  43
   7  -1  -2 38605.8 637.258  40
  -7   1   1 214.070 39.4123  20
  -7   1   1 235.978 33.1972  48
  -7   1   1 200.913 34.2440  43
  -7   1   0 189.479 31.8979  20
   7  -1   0 212.344 40.6154  36
  -7   1   0 188.988 32.1336  48
  -7   1   0 146.767 28.0918  15
  -7   1   0 160.948 30.4935  43
   7  -1   0 156.154 36.6644  40
  -7   1   0 167.852 26.6306  39
   7  -1   0 167.399 36.2575  21
  -7   1  -1 9486.79 247.666  20
   7  -1   1 9146.31 266.915  36
  -7   1  -1 9080.17 236.597  48
  -7   1  -1 9256.25 239.779  15
  -7   1  -1 8829.14 234.326  43
   7  -1   1 8934.91 257.357  40
   7  -1   1 9103.88 255.389  21
  -7   1  -1 9097.03 230.606  39
  -7   1  -2 7296.74 211.982  20
   7  -1   2 6900.96 231.486  36
  -7   1  -2 6899.76 202.369  48
  -7   1  -2 7070.43 201.147  15
  -7   1  -2 7039.55 188.569  45
  -7   1  -2 6733.69 196.674  43
   7  -1   2 6701.50 222.058  40
   7  -1   2 6916.71 223.086  21
  -7   1  -2 7115.56 203.649  39
  -7   1  -3 2166.30 111.037  20
   7  -1   3 2226.24 128.825  36
  -7   1  -3 2256.49 110.301  48
  -7   1  -3 2238.23 103.614  45
   7  -1   3 2190.77 124.124  40
   7  -1   3 2182.60 122.681  21
  -7   1  -3 2219.66 110.114  39
  -7   1  -4 5567.55 177.229  20
   7  -1   4 6121.86 219.959  36
  -7   1  -4 5687.35 180.296  48
   7  -1   4 6451.59 230.042  16
  -7   1  -4 5983.92 179.024  45
   7  -1   4 5470.29 175.203  22
   7  -1   4 5913.88 207.489  40
   7  -1   4 5991.07 210.372  21
  -7   1  -4 6016.09 187.057  39
   7  -1   4 5533.37 177.481  12
   7  -1   5 2892.29 150.292  36
  -7   1  -5 2685.82 119.265  48
   7  -1   5 3002.22 152.019  16
  -7   1  -5 2893.29 121.181  45
   7  -1   5 2643.11 120.458  22
   7  -1   5 2781.11 138.300  40
   7  -1   5 2817.66 144.025  21
  -7   1  -5 2947.26 127.636  39
   7  -1   5 2765.27 125.051  12
   7  -1   6 864.289 81.3903  36
  -7   1  -6 816.579 64.5979  48
  -7   1  -6 933.452 68.0910  45
   7  -1   6 841.303 69.0658  22
   7  -1   6 877.029 78.0883  40
   7  -1   6 847.285 77.5083  21
  -7   1  -6 918.469 69.9094  39
   7  -1   6 969.024 74.7393  12
   7  -1   7 2177.79 121.427  36
  -7   1  -7 2291.50 105.002  45
   7  -1   7 2175.88 106.619  22
   7  -1   7 2050.31 113.850  40
   7  -1   7 2088.44 118.135  21
  -7   1  -7 2213.45 104.579  39
  -7   1  -7 1961.87 92.2760  48
   7  -1   7 2296.39 112.535  12
   7  -1   8 107.021 30.7064  36
  -7   1  -8 122.764 26.7292  45
   7  -1   8 157.201 33.3110  22
   7  -1   8 83.7358 29.6657  40
   7  -1   8 99.8782 32.5687  21
  -7   1  -8 114.671 24.9043  39
   7  -1   9 84.4835 26.1459  36
  -7   1  -9 84.5886 22.5350  45
   7  -1   9 116.011 24.7485  22
   7  -1   9 99.1709 26.5647  40
   7  -1   9 115.460 30.0805  21
  -7   1  -9 92.1483 19.2142  39
   7  -1  10 224.217 30.8033  36
  -7   1 -10 276.958 30.2326  46
  -7   1 -10 274.162 29.1059  45
   7  -1  10 272.781 30.8925  22
   7  -1  10 235.777 32.4094  40
  -7   0  12 94.0892 19.4656  27
  -7   0  12 113.656 17.6859  24
  -7   0  11 27.6667 15.2965  27
  -7   0  11 52.1649 14.8491  24
  -7   0  10 819.578 63.7713  27
  -7   0  10 894.138 55.4289  24
  -7   0   9 743.787 64.2174  27
  -7   0   9 712.323 52.3636  24
  -7   0   9 811.703 66.8468  43
  -7   0   8 2892.26 129.791  27
  -7   0   8 2847.44 125.002  15
  -7   0   8 3100.17 114.020  24
  -7   0   8 3032.53 138.450  43
  -7   0   7 2112.69 108.233  27
  -7   0   7 2213.18 113.781  15
  -7   0   7 2239.08 97.6263  24
  -7   0   7 2107.44 118.754  43
  -7   0   7 2059.26 112.811  14
  -7   0   6 259.585 38.1864  27
  -7   0   6 324.223 39.4650  24
  -7   0   6 271.743 41.4109  15
  -7   0   6 304.414 46.8580  43
  -7   0   5 4898.05 172.637  20
  -7   0   5 4793.27 171.505  48
  -7   0   5 4889.53 149.806  24
  -7   0   5 4677.62 173.517  15
  -7   0   5 4701.47 182.352  43
  -7   0   4 1396.04 91.6725  20
  -7   0   4 1398.41 77.2811  24
  -7   0   4 1455.05 93.6796  15
  -7   0   4 1448.22 97.9930  43
  -7   0   4 1504.84 94.9582  48
  -7   0   3 2245.10 117.330  20
  -7   0   3 2148.18 115.060  48
  -7   0   3 2154.29 97.1893  24
  -7   0   3 2122.40 114.939  15
  -7   0   3 2288.77 120.833  43
  -7   0   2 16628.0 353.630  20
   7   0  -2 16141.3 357.647  36
  -7   0   2 16522.8 349.366  48
  -7   0   2 16448.1 349.510  15
  -7   0   2 16422.2 354.539  43
  -7   0   1 21691.6 415.978  20
   7   0  -1 21241.6 430.639  36
  -7   0   1 21446.6 409.081  48
  -7   0   1 21959.0 413.301  15
  -7   0   1 21600.6 412.175  43
  -7   0   1 21575.0 386.280  39
  -7   0   0 19073.5 381.063  20
   7   0   0 19250.8 405.129  36
  -7   0   0 19470.3 378.258  15
  -7   0   0 18887.6 375.100  48
  -7   0   0 19094.9 374.400  43
   7   0   0 18555.5 381.861  40
  -7   0   0 18648.3 359.593  39
  -7   0  -1 87.0439 22.9507  20
   7   0   1 37.9153 27.8925  36
  -7   0  -1 33.3016 17.3942  48
  -7   0  -1 87.3722 20.3639  43
   7   0   1 57.1898 23.3679  40
  -7   0  -1 40.2815 17.3790  39
  -7   0  -2 277.674 42.6547  20
   7   0   2 280.416 52.6286  36
  -7   0  -2 291.483 43.1024  48
  -7   0  -2 425.468 47.1198  15
  -7   0  -2 262.899 36.2288  45
   7   0   2 221.925 38.9486  40
  -7   0  -2 254.930 39.2014  39
   7   0   2 309.227 47.8867  21
   7   0   3 24362.2 485.942  36
  -7   0  -3 24552.2 434.926  48
  -7   0  -3 24840.8 422.252  45
   7   0   3 23006.4 451.746  40
   7   0   3 23063.0 454.019  21
  -7   0  -3 24575.6 437.761  39
  -7   0  -3 23735.0 428.468  20
   7   0   4 1652.67 114.456  36
  -7   0  -4 1604.22 94.5245  48
   7   0   4 1602.07 116.641  16
  -7   0  -4 1641.57 92.4579  45
   7   0   4 1500.70 86.9616  22
   7   0   4 1484.17 99.0638  40
   7   0   4 1447.67 101.004  21
  -7   0  -4 1649.79 96.3451  39
   7   0   4 1583.07 92.5650  12
   7   0   5 1020.18 87.6193  36
   7   0   5 1120.36 95.8658  16
  -7   0  -5 1088.29 74.8085  45
  -7   0  -5 1089.22 74.3709  48
   7   0   5 903.231 69.1352  22
   7   0   5 945.564 78.1725  40
   7   0   5 929.352 79.7807  21
  -7   0  -5 937.805 73.9293  39
   7   0   5 1032.24 75.9336  12
   7   0   6 3394.37 156.743  36
   7   0   6 3159.09 147.688  16
  -7   0  -6 3012.17 118.286  48
  -7   0  -6 3388.59 132.255  45
   7   0   6 3338.10 132.341  22
   7   0   6 3158.70 140.843  40
   7   0   6 3223.40 147.401  21
  -7   0  -6 3349.05 134.375  39
   7   0   7 1678.11 105.346  36
  -7   0  -7 1916.77 97.3796  45
   7   0   7 1733.80 91.5592  22
   7   0   7 1584.12 95.4549  40
   7   0   7 1827.71 105.791  21
  -7   0  -7 1792.91 93.0107  39
   7   0   8 73.5765 27.3905  36
  -7   0  -8 52.2258 20.5285  46
  -7   0  -8 48.8381 21.7593  45
   7   0   8 10.8728 14.8107  22
   7   0   8 6.66890 19.4961  40
   7   0   8 8.16326 18.6264  21
  -7   0  -8 38.8658 17.7475  39
   7   0   9 1198.93 74.8159  36
  -7   0  -9 1331.39 68.3904  46
  -7   0  -9 1303.59 68.1395  45
   7   0   9 1305.92 69.2478  22
   7   0   9 1157.55 70.6773  40
  -7   0  -9 1166.57 59.0327  39
   7   0  10 1115.48 60.8987  36
  -7   0 -10 1324.38 60.2719  46
  -7   0 -10 1209.95 56.1966  45
   7   0  10 1370.32 62.5278  22
   7   0  10 1252.51 62.9386  40
  -7  -1  13 997.282 52.3013  27
  -7  -1  12 1849.28 82.8188  27
  -7  -1  11 83.7097 22.2997  27
  -7  -1  11 12.0906 9.69993  24
  -7  -1  10 345.069 43.4117  27
  -7  -1  10 399.056 35.9672  24
  -7  -1   9 1995.54 105.507  27
  -7  -1   9 2134.93 87.6720  24
  -7  -1   9 1809.60 100.156  14
  -7  -1   8 4135.46 153.998  27
  -7  -1   8 4033.45 151.237  15
  -7  -1   8 4174.69 130.305  24
  -7  -1   8 4083.55 165.820  43
  -7  -1   8 4023.02 160.006  14
  -7  -1   7 367.760 48.7130  27
  -7  -1   7 326.164 36.7111  24
  -7  -1   7 300.346 43.0828  15
  -7  -1   7 299.169 47.0787  43
  -7  -1   7 307.544 46.5383  14
  -7  -1   6 17904.7 372.471  15
  -7  -1   6 18557.8 323.207  24
  -7  -1   6 18284.9 391.249  43
  -7  -1   5 359.343 47.5066  48
  -7  -1   5 402.723 41.5604  24
  -7  -1   5 400.655 49.8521  15
  -7  -1   5 389.042 53.9477  43
  -7  -1   5 386.172 49.0977  20
  -7  -1   4 1326.79 90.6741  48
  -7  -1   4 1389.59 74.9640  24
  -7  -1   4 1291.87 89.6025  15
  -7  -1   4 1484.29 98.6513  43
  -7  -1   4 1388.00 92.7321  20
   7   1  -3 9497.30 256.765  36
  -7  -1   3 9901.80 263.334  48
  -7  -1   3 9813.56 258.497  15
  -7  -1   3 9869.30 264.554  43
  -7  -1   3 9785.80 261.296  20
  -7  -1   2-2.05104 22.6675  20
   7   1  -2-19.5485 27.9051  36
  -7  -1   2 20.2958 20.4785  48
  -7  -1   2-29.7151 27.9948  15
  -7  -1   1 49178.6 737.688  20
   7   1  -1 50280.0 761.761  36
  -7  -1   1 50482.4 743.094  48
  -7  -1   1 50382.0 735.637  15
  -7  -1   1 49264.1 729.096  43
  -7  -1   1 50215.8 715.138  39
   7   1   0 1336.12 96.6852  36
  -7  -1   0 1478.86 95.8042  48
  -7  -1   0 1334.93 88.1325  15
  -7  -1   0 1206.14 81.9170  43
  -7  -1   0 1377.60 86.3519  39
  -7  -1   0 1352.67 89.8048  20
   7   1   1 14316.1 344.013  36
  -7  -1  -1 14213.0 316.857  48
  -7  -1  -1 14611.7 315.448  15
  -7  -1  -1 14267.1 294.727  45
  -7  -1  -1 14475.3 314.289  39
  -7  -1  -1 14433.2 317.243  20
   7   1   2 11839.9 311.044  36
  -7  -1  -2 12044.7 282.988  48
  -7  -1  -2 11543.4 269.807  15
  -7  -1  -2 11848.7 267.424  45
  -7  -1  -2 11908.7 279.720  39
  -7  -1  -2 11168.8 273.800  20
   7   1   3 11747.5 307.945  36
  -7  -1  -3 11176.0 267.026  48
   7   1   3 11695.0 331.675  16
  -7  -1  -3 11375.8 263.207  45
   7   1   3 10509.5 268.096  40
   7   1   3 10839.0 277.697  21
  -7  -1  -3 11222.1 272.904  39
   7   1   4 936.587 83.9746  36
  -7  -1  -4 980.122 70.9045  48
   7   1   4 1075.18 97.0626  16
  -7  -1  -4 1039.79 73.3959  45
   7   1   4 948.179 76.0597  40
   7   1   4 1124.23 83.5933  21
  -7  -1  -4 1054.82 77.5518  39
   7   1   5 172.433 40.6362  36
  -7  -1  -5 172.573 29.3920  48
   7   1   5 152.015 39.3017  16
  -7  -1  -5 206.944 35.6394  45
   7   1   5 158.850 28.6574  22
   7   1   5 166.799 31.4746  40
   7   1   5 175.471 35.4628  21
  -7  -1  -5 188.437 36.1720  39
   7   1   6 754.735 72.4002  36
   7   1   6 721.505 68.7306  16
  -7  -1  -6 869.798 63.9093  46
  -7  -1  -6 827.271 64.4726  45
   7   1   6 756.610 59.7898  22
   7   1   6 715.350 62.3351  40
   7   1   6 749.625 66.1803  21
  -7  -1  -6 828.048 64.9013  39
   7   1   7 167.586 38.6040  36
   7   1   7 147.714 30.5420  16
  -7  -1  -7 178.741 29.8697  46
  -7  -1  -7 193.472 32.7032  45
   7   1   7 156.445 28.0199  22
   7   1   7 109.163 25.5426  40
   7   1   7 129.012 26.5725  21
  -7  -1  -7 147.404 29.0822  39
   7   1   8 1064.04 74.3394  36
  -7  -1  -8 1165.19 65.8867  46
  -7  -1  -8 1055.62 64.4065  45
   7   1   8 1063.78 64.3628  22
   7   1   8 954.481 63.7023  40
  -7  -1  -8 940.765 57.6123  39
  -7  -1  -9 888.063 48.7627  38
   7   1   9 849.547 58.8162  36
  -7  -1  -9 914.615 52.9953  46
  -7  -1  -9 828.070 50.8143  45
   7   1   9 927.835 53.8770  22
   7   1   9 812.206 52.0926  40
  -7  -2  13 1201.77 59.4758  27
  -7  -2  12 930.733 59.5502  27
  -7  -2  11 1191.72 72.6545  27
  -7  -2  10 209.049 33.9694  27
  -7  -2  10 242.883 38.2450  14
  -7  -2   9 9260.16 237.735  27
  -7  -2   9 8774.22 243.023  14
  -7  -2   8 4305.22 156.901  27
  -7  -2   8 4351.94 157.313  15
  -7  -2   8 4494.54 174.798  43
  -7  -2   8 4419.67 173.069  14
  -7  -2   7 3583.16 141.601  27
  -7  -2   7 3654.90 148.742  15
  -7  -2   7 3630.72 159.204  43
  -7  -2   7 3626.43 159.024  14
  -7  -2   6 355.296 48.2596  15
  -7  -2   6 392.234 44.9988  27
  -7  -2   6 375.107 55.1281  43
  -7  -2   5 35841.7 602.622  48
  -7  -2   5 36810.2 598.317  15
  -7  -2   5 37905.2 620.641  43
  -7  -2   4 6019.96 203.014  48
  -7  -2   4 6103.87 199.475  15
  -7  -2   4 6189.98 206.742  43
  -7  -2   3 13751.0 323.033  48
  -7  -2   3 13516.5 312.524  15
  -7  -2   3 13650.5 317.137  43
   7   2  -2 39575.7 633.755  36
  -7  -2   2 40717.3 642.233  48
  -7  -2   2 39573.8 625.835  15
  -7  -2   2 39840.7 623.391  43
  -7  -2   2 39956.9 608.376  39
   7   2  -1 15264.3 345.519  36
  -7  -2   1 15406.2 342.019  48
  -7  -2   1 14921.9 329.683  15
  -7  -2   1 14377.6 315.206  43
  -7  -2   1 15615.3 325.447  39
   7   2   0 22840.5 450.562  36
  -7  -2   0 23099.7 434.882  48
  -7  -2   0 23370.7 430.265  15
  -7  -2   0 23224.9 427.245  39
   7   2   1 2955.90 146.835  36
  -7  -2  -1 2988.21 133.889  48
   7   2   1 3440.76 170.687  16
  -7  -2  -1 3034.91 132.802  15
  -7  -2  -1 3007.72 126.363  45
  -7  -2  -1 3126.94 137.200  39
   7   2   2 5467.97 199.387  36
   7   2   2 5916.42 296.303  49
  -7  -2  -2 5456.58 179.942  48
   7   2   2 5654.38 221.654  16
  -7  -2  -2 5285.30 172.341  15
  -7  -2  -2 5399.31 174.392  45
  -7  -2  -2 5270.87 180.040  39
   7   2   3 189.411 44.6679  36
  -7  -2  -3 179.058 33.8936  48
   7   2   3 195.945 47.8671  16
  -7  -2  -3 216.257 33.9394  46
  -7  -2  -3 184.371 37.1243  45
  -7  -2  -3 179.804 34.4123  39
   7   2   4 500.766 60.2691  36
  -7  -2  -4 494.873 48.6730  48
   7   2   4 529.504 64.7574  16
  -7  -2  -4 638.409 55.4134  46
  -7  -2  -4 559.303 54.8082  45
   7   2   4 488.088 53.2945  21
  -7  -2  -4 521.136 54.6956  39
   7   2   5 209.845 40.1496  36
   7   2   5 229.371 40.0718  16
  -7  -2  -5 259.570 35.4287  46
  -7  -2  -5 245.637 37.0102  45
   7   2   5 258.260 35.3664  22
   7   2   5 238.629 39.2494  21
  -7  -2  -5 267.141 38.2913  39
   7   2   6 142.485 32.5990  36
   7   2   6 173.139 35.1087  16
  -7  -2  -6 198.110 33.0293  46
  -7  -2  -6 160.274 31.3325  45
   7   2   6 168.464 27.4064  22
   7   2   6 186.380 34.9462  21
   7   2   6 139.353 28.2653  40
  -7  -2  -6 167.305 30.9031  39
  -7  -2  -7 1192.44 63.5745  38
   7   2   7 1143.52 78.4727  36
   7   2   7 1094.64 70.4731  16
  -7  -2  -7 1220.58 68.7330  46
  -7  -2  -7 1145.66 68.9371  45
   7   2   7 1196.07 67.9177  22
   7   2   7 1111.62 65.7346  40
  -7  -2  -7 1207.39 69.7998  39
  -7  -2  -8 57.8331 16.2524  38
   7   2   8 48.1961 19.5514  36
  -7  -2  -8 44.7084 15.3549  46
  -7  -2  -8 46.6989 16.9548  45
   7   2   8 70.2935 18.8717  22
  -7  -2  -8 36.4489 12.5382  39
   7   2   9 502.007 40.3822  36
  -7  -2  -9 514.241 35.7807  46
  -7  -2  -9 465.735 33.5781  45
  -7  -3  13 2400.60 86.2520  27
  -7  -3  12 217.241 31.1943  27
  -7  -3  11 1239.23 73.5722  27
  -7  -3  11 998.345 67.9272  14
  -7  -3  10 2346.38 107.969  27
  -7  -3  10 2436.58 117.438  14
  -7  -3   9 1668.16 93.6914  27
  -7  -3   9 1833.07 107.223  14
  -7  -3   8 217.712 34.4320  27
  -7  -3   8 196.162 31.5476  15
  -7  -3   8 235.720 42.4449  14
  -7  -3   7 4421.23 158.132  27
  -7  -3   7 4473.85 164.772  15
  -7  -3   7 4405.41 175.722  43
  -7  -3   7 4289.56 174.530  14
  -7  -3   6 10485.1 251.456  27
  -7  -3   6 10587.3 271.245  15
  -7  -3   6 10812.3 287.189  43
  -7  -3   6 10699.9 286.120  14
  -7  -3   5 4752.87 157.508  27
  -7  -3   5 4457.10 175.895  48
  -7  -3   5 4516.38 170.927  15
  -7  -3   5 4652.65 178.417  43
  -7  -3   4 21468.1 428.311  48
  -7  -3   4 21049.7 414.803  15
  -7  -3   4 21784.9 424.504  43
  -7  -3   3 1808.87 109.961  48
  -7  -3   3 1749.94 105.020  15
  -7  -3   3 1915.32 107.003  43
  -7  -3   2 2290.75 120.886  48
  -7  -3   2 2075.19 114.215  15
  -7  -3   2 2122.45 109.151  43
  -7  -3   2 2247.83 112.330  39
   7   3  -1 603.019 63.8824  36
  -7  -3   1 564.381 60.4868  48
  -7  -3   1 569.234 59.9721  15
  -7  -3   1 534.496 56.3657  39
   7   3   0 12732.9 309.623  36
  -7  -3   0 12786.8 299.557  48
   7   3   0 13335.0 354.739  16
  -7  -3   0 13116.0 299.952  15
  -7  -3   0 12726.0 284.677  45
  -7  -3   0 12788.7 299.149  39
   7   3   1 6195.42 207.220  36
   7   3   1 6754.94 353.327  49
  -7  -3  -1 6116.99 192.394  48
   7   3   1 6690.88 240.989  16
  -7  -3  -1 6274.23 193.686  15
  -7  -3  -1 6634.70 195.794  45
  -7  -3  -1 6499.86 202.531  39
   7   3   2 477.192 56.8960  36
   7   3   2 620.930 88.7831  49
  -7  -3  -2 529.472 53.2762  48
   7   3   2 544.228 68.3006  16
  -7  -3  -2 538.372 51.7960  15
  -7  -3  -2 591.045 57.4586  45
  -7  -3  -2 571.256 58.6914  39
   7   3   3 418.107 59.6882  49
   7   3   3 304.391 48.0233  36
  -7  -3  -3 396.116 43.5299  48
   7   3   3 390.655 56.9590  16
  -7  -3  -3 408.656 45.3082  46
  -7  -3  -3 381.265 47.6172  45
  -7  -3  -3 400.173 48.5785  39
   7   3   4 658.997 65.9379  36
   7   3   4 544.573 54.8109  49
   7   3   4 651.929 71.1285  16
  -7  -3  -4 726.123 58.0605  46
  -7  -3  -4 797.181 63.3838  45
  -7  -3  -4 667.559 61.3551  39
   7   3   5 663.368 62.1486  36
   7   3   5 799.055 72.3446  16
  -7  -3  -5 702.946 55.5250  46
  -7  -3  -5 747.637 60.3134  45
   7   3   5 773.691 54.4038  22
  -7  -3  -5 691.341 57.9402  39
  -7  -3  -6 12.8000 11.8072  38
   7   3   6-3.16061 19.1554  36
   7   3   6 4.48322 17.9141  16
  -7  -3  -6 21.3191 14.8647  46
  -7  -3  -6 0.24195 15.4014  45
   7   3   6 4.42197 12.0372  22
  -7  -3  -6-13.0713 14.9505  39
  -7  -3  -7 277.793 28.9671  38
   7   3   7 268.412 35.2378  36
   7   3   7 235.636 31.1531  16
  -7  -3  -7 286.007 31.5152  46
  -7  -3  -7 243.196 30.6162  45
   7   3   7 335.529 33.0462  22
  -7  -3  -7 268.590 29.3304  39
   7   3   8 265.624 31.9115  36
  -7  -3  -8 179.605 22.5219  46
  -7  -3  -8 234.581 26.4681  45
  -7  -4  13 477.454 38.6050  27
  -7  -4  12 257.350 33.3506  27
  -7  -4  12 233.453 30.9254  14
  -7  -4  11 3761.54 130.289  27
  -7  -4  11 3353.72 128.425  14
  -7  -4  10 33.0863 23.8526  27
  -7  -4  10 44.4873 18.6744  14
  -7  -4   9 1543.69 89.0581  27
  -7  -4   9 1447.61 94.5817  14
  -7  -4   8 1483.25 89.3437  27
  -7  -4   8 1487.10 87.8737  15
  -7  -4   8 1492.74 98.8206  14
  -7  -4   7 8630.33 224.559  27
  -7  -4   7 8417.60 232.335  15
  -7  -4   7 8314.64 248.264  14
  -7  -4   6 12923.4 303.994  15
  -7  -4   6 13026.1 322.089  14
  -7  -4   5 1929.98 108.787  15
  -7  -4   5 1907.68 113.709  14
  -7  -4   4 1791.25 104.209  15
  -7  -4   3 829.491 72.3377  48
   7   4  -3 852.461 85.9294  16
  -7  -4   3 741.125 67.6415  15
  -7  -4   3 693.187 61.2861  39
  -7  -4   2 6871.41 216.335  48
   7   4  -2 7427.89 248.241  16
  -7  -4   2 6947.49 210.719  15
  -7  -4   2 6826.51 207.480  39
   7   4  -1 4201.79 188.143  16
  -7  -4   1 3843.22 152.518  15
  -7  -4   1 3914.29 155.063  48
  -7  -4   1 3950.78 155.133  39
  -7  -4   0 160.397 30.9396  48
   7   4   0 161.289 44.8046  16
  -7  -4   0 220.719 33.5633  45
  -7  -4   0 146.334 31.1523  15
  -7  -4   0 127.542 30.2730  39
   7   4   1 1771.47 103.734  36
   7   4   1 2094.36 164.561  49
  -7  -4  -1 1702.63 94.1528  48
   7   4   1 1828.47 120.728  16
  -7  -4  -1 1783.69 97.7928  15
  -7  -4  -1 1780.15 98.2663  45
  -7  -4  -1 1825.72 103.352  39
   7   4   2 452.897 53.7952  36
   7   4   2 517.490 70.9964  49
  -7  -4  -2 472.232 46.8836  48
   7   4   2 517.905 65.9137  16
  -7  -4  -2 454.003 48.1528  15
  -7  -4  -2 531.170 53.9262  45
  -7  -4  -2 513.443 54.9112  39
   7   4   3-12.1871 24.7914  36
   7   4   3-29.7702 30.9662  49
   7   4   3-40.5971 31.5241  16
  -7  -4  -3 18.0014 12.4864  46
  -7  -4  -3 31.9734 18.9566  45
  -7  -4  -3 26.4914 19.4996  39
   7   4   4 221.092 37.6066  36
   7   4   4 258.697 38.3479  49
   7   4   4 251.821 46.3591  16
  -7  -4  -4 263.370 34.0584  46
  -7  -4  -4 284.031 38.0909  45
  -7  -4  -4 245.121 35.7464  39
   7   4   5 417.208 47.2608  36
   7   4   5 397.563 39.7527  49
   7   4   5 400.702 47.4763  16
  -7  -4  -5 411.440 40.2205  46
  -7  -4  -5 448.951 43.8440  45
  -7  -4  -5 450.661 43.4210  39
  -7  -4  -6 38.3759 12.6027  38
   7   4   6 11.5646 14.9822  36
   7   4   6 29.0123 16.5650  16
  -7  -4  -6 29.9351 12.0191  46
  -7  -4  -6 9.88801 15.4730  45
  -7  -4  -6 20.6456 11.3811  39
   7   4   7 12.4943 12.8934  36
   7   4   7 15.3303 11.6635  16
  -7  -4  -7-11.1798 13.5106  46
  -7  -4  -7-17.3700 13.2431  45
  -7  -5  12 68.2037 21.5484  14
  -7  -5  11 163.268 34.1787  27
  -7  -5  11 122.964 26.6144  14
  -7  -5  10 1949.93 94.5982  27
  -7  -5  10 1681.23 94.0769  14
  -7  -5   9 162.217 37.4070  27
  -7  -5   9 82.5695 27.5825  14
  -7  -5   8 3216.91 129.085  15
  -7  -5   8 3260.94 144.866  14
  -7  -5   7 684.163 61.8954  15
  -7  -5   7 717.445 68.1115  14
  -7  -5   6 502.019 54.5726  15
  -7  -5   6 415.212 52.9946  14
  -7  -5   5 5504.31 185.265  15
  -7  -5   5 5691.74 194.240  14
  -7  -5   4 1925.65 105.713  15
   7   5  -4 2120.32 122.839  16
  -7  -5   4 1935.54 107.891  14
   7   5  -3 5884.83 210.336  16
  -7  -5   3 5587.07 185.275  15
  -7  -5   3 5753.07 185.535  14
  -7  -5   3 5430.85 179.584  39
  -7  -5   2 3403.46 141.557  15
   7   5  -2 3491.20 165.206  16
  -7  -5   2 3287.57 132.418  14
  -7  -5   2 3359.26 140.677  39
   7   5  -1 76.6814 38.3362  16
  -7  -5   1 49.2068 23.0735  45
  -7  -5   1 48.3212 27.0626  15
  -7  -5   1 55.5727 23.3577  39
   7   5   0 2239.34 165.675  49
   7   5   0 2023.81 120.255  16
  -7  -5   0 1973.50 103.175  15
  -7  -5   0 1922.40 100.352  45
  -7  -5   0 1852.27 103.048  39
   7   5   1 2111.93 137.952  49
   7   5   1 1885.38 113.400  16
  -7  -5  -1 1796.00 94.3134  15
  -7  -5  -1 1926.76 99.1252  45
  -7  -5  -1 1855.47 100.359  39
   7   5   2 36.5916 20.3045  36
   7   5   2 9.30490 28.3401  49
   7   5   2 51.3035 28.7399  16
  -7  -5  -2 25.4555 16.3401  45
  -7  -5  -2 76.2194 23.6032  39
   7   5   3 20.4569 15.9977  36
   7   5   3 50.6671 24.5664  49
   7   5   3 48.0472 24.8160  16
  -7  -5  -3 18.9420 14.5641  46
  -7  -5  -3-5.68945 21.9387  45
  -7  -5  -3 10.9816 15.2475  39
   7   5   4 425.840 42.7688  36
   7   5   4 391.976 42.9193  49
   7   5   4 397.374 45.6322  16
  -7  -5  -4 405.416 38.0910  46
  -7  -5  -4 422.942 41.7870  45
  -7  -5  -4 435.701 42.0495  39
   7   5   5-4.60557 13.6444  36
   7   5   5 3.19544 11.7461  49
   7   5   5 3.38878 13.7803  16
  -7  -5  -5-0.80048 12.1621  46
  -7  -5  -5-16.2313 16.7366  45
  -7  -5  -5 20.4587 13.2889  39
   7   5   6 148.825 21.7117  36
   7   5   6 115.971 20.2384  16
  -7  -5  -6 119.173 18.1681  46
  -7  -5  -6 146.014 21.4031  45
  -7  -6  12 136.613 25.0287  14
  -7  -6  11 432.022 43.0679  14
  -7  -6  10 407.595 42.7252  14
  -7  -6   9-70.9178 32.0162  14
  -7  -6   8 363.859 42.9769  15
  -7  -6   8 288.523 42.7009  14
  -7  -6   7 481.389 49.9248  17
  -7  -6   7 523.827 53.6024  15
  -7  -6   7 524.001 55.6971  14
  -7  -6   6 3402.28 137.590  17
  -7  -6   6 3599.41 140.630  15
  -7  -6   6 3513.13 142.454  14
  -7  -6   5 164.223 32.9504  15
  -7  -6   5 147.515 31.4287  14
  -7  -6   4 9275.02 238.576  15
  -7  -6   4 9221.15 231.546  14
  -7  -6   4 9153.50 230.243  39
   7   6  -3 1065.62 83.4933  16
  -7  -6   3 971.012 74.2694  15
  -7  -6   3 1021.90 74.4088  39
   7   6  -2 1047.28 81.5886  16
  -7  -6   2 1047.04 76.3127  15
  -7  -6   2 1054.73 75.3626  39
   7   6  -1 6037.26 198.107  16
  -7  -6   1 5913.09 182.006  15
  -7  -6   1 5690.17 172.729  45
  -7  -6   1 5831.30 182.625  39
   7   6   0 709.160 76.6054  49
   7   6   0 581.601 60.0794  16
  -7  -6   0 655.068 55.5538  45
  -7  -6   0 669.461 59.0495  39
   7   6   1 261.621 42.9114  49
   7   6   1 212.198 35.5890  16
  -7  -6  -1 259.928 36.0851  45
  -7  -6  -1 234.223 36.9126  39
  -7  -6  -2 61.4917 18.3612  17
   7   6   2 79.5088 26.3307  49
   7   6   2 89.3041 25.8705  16
  -7  -6  -2 82.1905 25.2706  45
  -7  -6  -2 74.6035 22.4271  39
   7   6   3 392.820 43.0568  16
   7   6   3 416.994 43.0593  49
  -7  -6  -3 447.698 38.1107  46
  -7  -6  -3 409.052 40.1378  45
   7   6   3 437.152 41.7082  42
  -7  -6  -3 470.444 43.0594  39
  -7  -6  -4 1467.64 61.6340  11
   7   6   4 1601.39 76.8239  16
   7   6   4 1476.83 70.5754  49
  -7  -6  -4 1559.55 65.1452  46
  -7  -6  -4 1617.10 72.1254  45
   7   6   5 831.945 47.9023  16
  -7  -6  -5 872.618 46.7125  45
  -7  -7  12 23.7409 14.2032  14
  -7  -7  11 272.584 33.0030  14
  -7  -7  10 362.051 40.9581  14
  -7  -7   9 7370.23 192.647  14
  -7  -7   8 1571.06 79.7621  17
  -7  -7   8 1621.09 81.7158  15
  -7  -7   8 1591.09 86.2190  14
  -7  -7   7 369.182 42.3870  17
  -7  -7   7 334.843 41.8738  15
  -7  -7   7 268.338 38.5844  14
  -7  -7   6 337.085 43.3337  17
  -7  -7   6 358.186 44.4117  15
  -7  -7   6 357.334 44.2250  14
  -7  -7   5 10355.3 245.811  17
  -7  -7   5 9997.30 236.872  15
  -7  -7   5 9513.31 221.352  14
  -7  -7   4 30.8544 20.2998  17
   7   7  -4 103.880 71.9520  49
  -7  -7   4 32.8326 21.8489  15
  -7  -7   3 55.1799 18.8544  17
  -7  -7   3 81.8508 25.3105  15
  -7  -7   2 1708.11 88.4153  17
   7   7  -2 1869.98 122.881  49
   7   7  -2 1793.65 93.5823  16
  -7  -7   1 20.7486 17.2934  17
   7   7  -1-29.6552 30.2465  49
   7   7  -1-10.2375 18.1423  16
  -7  -7   1 20.8679 15.6306  45
  -7  -7   0 76.6412 19.4871  17
   7   7   0 83.9258 27.8759  49
   7   7   0 125.814 27.4152  16
  -7  -7   0 108.000 23.6714  45
  -7  -7  -1 21.4174 14.1488  17
   7   7   1 25.2369 19.0315  49
   7   7   1 16.1304 15.6093  16
  -7  -7  -1 29.0302 15.6129  45
  -7  -7  -2 157.487 23.9039  11
   7   7   2 135.519 24.7014  49
   7   7   2 126.166 23.8956  16
  -7  -7  -2 153.316 24.7505  45
   7   7   2 111.833 23.0595  42
   7   7   3 850.915 50.8890  16
   7   7   3 876.816 50.8456  49
  -7  -7  -3 917.005 50.2519  45
  -7  -8  11 76.1121 19.3706  14
  -7  -8  10 293.806 31.4326  14
  -7  -8   9 1761.21 77.6266  14
  -7  -8   8 205.283 28.4732  17
   7   8  -8 182.578 44.1660  49
  -7  -8   8 213.950 29.2279  14
  -7  -8   7 293.884 35.0626  17
   7   8  -7 345.161 58.7674  49
  -7  -8   7 253.976 30.8120  14
  -7  -8   6 4654.43 132.351  11
  -7  -8   6 4649.06 144.128  17
  -7  -8   5 176.123 29.5994  11
  -7  -8   5 212.168 34.0713  17
   7   8  -5 222.369 51.5701  49
  -7  -8   4 1975.86 89.9319  11
  -7  -8   4 1979.76 91.3524  17
   7   8  -4 2219.68 120.322  49
  -7  -8   3 0.37666 14.4424  11
  -7  -8   3 15.6483 16.2522  17
   7   8  -3 2.69890 22.3949  49
  -7  -8   2 1262.31 70.0285  11
  -7  -8   2 1382.11 70.0736  17
   7   8  -2 1351.85 80.9653  49
   7   8  -2 1392.48 71.9397  44
  -7  -8   1 161.170 26.7601  11
  -7  -8   1 168.457 24.3512  17
   7   8  -1 155.536 27.2357  49
   7   8  -1 162.320 23.4424  16
  -7  -8   1 159.390 24.2265  45
   7   8  -1 198.908 31.3142  42
  -7  -8   0 221.884 26.7156  11
  -7  -8   0 214.679 24.1830  17
   7   8   0 216.969 29.5831  49
   7   8   0 212.932 25.3007  16
  -7  -8   0 224.762 27.0037  45
   7   8   0 259.221 31.9478  42
  -7  -8  -1 1490.99 61.9086  11
   7   8   1 1493.92 67.4705  49
  -7  -8  -1 1471.18 62.4277  45
   7   8   1 1575.90 66.1228  42
  -7  -9   8 201.494 23.3074  17
  -7  -9   7 1494.97 66.5242  17
  -7  -9   6 2381.80 79.4442  11
  -7  -9   6 2539.79 91.3515  17
   7   9  -6 2398.72 90.3531  49
  -7  -9   5 2717.59 90.3446  11
  -7  -9   5 2728.65 94.8548  17
   7   9  -5 2726.83 97.6751  49
  -7  -9   4 30.6111 14.6341  11
  -7  -9   4 21.4542 13.4068  17
   7   9  -4 12.5467 14.6479  49
   7   9  -4 63.9466 21.2908  44
   7   9  -4 59.2791 16.9270  42
  -7  -9   3 1441.17 64.7550  11
  -7  -9   3 1334.61 61.4022  17
   7   9  -3 1453.89 68.0420  49
   7   9  -3 1362.95 62.2724  44
   7   9  -3 1495.98 66.3659  42
  -7  -9   2 28.6122 12.6252  11
  -7  -9   2 35.3669 12.1770  17
   7   9  -2 29.2691 13.7357  49
   7   9  -2 37.4806 14.5755  42
   7   9  -1 123.528 18.6922  42
   8  -9   0 3988.53 111.479  21
  -8   9  -1 3741.95 102.566  20
   8  -9   1 3548.22 105.265  47
  -8   9  -1 3718.97 103.375  43
   8  -9   1 3696.11 110.536  21
  -8   9  -2 1495.08 64.8690  20
   8  -9   2 1465.93 65.4604  37
   8  -9   2 1391.59 65.3440  47
  -8   9  -2 1573.84 66.5237  43
   8  -9   2 1403.81 61.2196  40
   8  -9   2 1550.39 71.0115  21
   8  -9   3 22.9908 10.3905  37
  -8   9  -3 52.6059 14.5315  20
   8  -9   3 23.9638 13.3286  47
  -8   9  -3 27.5869 12.5546  43
   8  -9   3 19.5087 11.6872  21
   8  -9   4-12.9015 13.4536  37
  -8   9  -4 10.0880 8.62407  20
   8  -9   4 2.93743 11.4131  47
  -8   9  -4 3.85356 9.42935  43
   8  -9   4-5.89566 14.1065  21
  -8   9  -5 3329.42 91.1931  20
   8  -9   5 3357.86 102.130  37
   8  -9   5 3321.86 101.155  47
  -8   9  -5 3397.15 94.2129  43
   8  -9   5 3231.46 97.0265  21
   8  -8  -3 143.563 22.8366  40
   8  -8  -3 154.105 24.2662  21
  -8   8   2 8899.28 181.786  41
   8  -8  -2 8566.80 183.870  40
   8  -8  -2 8935.45 191.090  21
  -8   8   1 36.9238 14.8283  20
   8  -8  -1 75.2428 19.5184  47
  -8   8   1 34.4846 15.9284  43
  -8   8   1 39.0932 17.3503  41
   8  -8  -1 32.4085 17.7688  40
   8  -8  -1 63.3567 20.1413  21
  -8   8   0 2090.53 85.3560  20
   8  -8   0 2116.05 86.3625  37
   8  -8   0 2110.22 85.6946  36
   8  -8   0 2105.14 89.2524  47
  -8   8   0 2216.49 89.2663  43
  -8   8   0 2165.99 83.0340  41
   8  -8   0 2138.55 91.7507  40
   8  -8   0 2311.21 97.4396  21
  -8   8  -1 3321.08 110.953  20
   8  -8   1 3021.03 109.286  37
   8  -8   1 3170.83 106.660  36
   8  -8   1 3105.78 113.395  47
  -8   8  -1 3113.00 110.351  43
   8  -8   1 3114.31 113.704  40
   8  -8   1 3263.61 121.485  21
  -8   8  -2 450.325 40.9476  20
   8  -8   2 455.392 43.3824  37
   8  -8   2 426.753 38.6059  36
   8  -8   2 432.162 42.6260  47
  -8   8  -2 466.290 43.2861  43
   8  -8   2 404.706 41.8546  40
   8  -8   2 456.941 46.5657  21
   8  -8   3 112.822 24.1937  37
  -8   8  -3 115.512 23.0130  20
   8  -8   3 97.4082 21.1939  47
  -8   8  -3 102.721 21.5267  43
   8  -8   3 135.253 26.3511  40
  -8   8  -3 133.647 20.0611  39
   8  -8   3 136.053 26.3904  21
  -8   8  -4 1950.39 81.3081  20
   8  -8   4 1828.28 87.0112  37
   8  -8   4 1865.90 87.4161  47
  -8   8  -4 1950.54 81.8680  43
   8  -8   4 1889.28 85.4104  40
   8  -8   4 1916.73 91.1747  21
  -8   8  -4 1941.60 73.8292  39
  -8   8  -5 1160.67 59.2301  20
   8  -8   5 1193.42 68.7072  37
  -8   8  -5 1228.77 54.8640  48
   8  -8   5 1143.25 66.6576  47
  -8   8  -5 1183.42 60.6755  43
   8  -8   5 1069.92 61.2871  40
   8  -8   5 1210.42 69.7374  21
  -8   8  -5 1214.41 58.0861  39
   8  -8   6 23.4138 14.4788  37
  -8   8  -6 31.8888 11.7241  20
  -8   8  -6 39.6404 12.3102  48
   8  -8   6 31.4415 12.9581  47
  -8   8  -6 29.1753 9.75877  45
  -8   8  -6 34.6424 12.3741  43
   8  -8   6 21.2135 11.7083  40
  -8   8  -6 44.1654 13.9553  39
   8  -8   6 19.9227 14.5684  21
   8  -8   7 294.808 31.2476  37
   8  -8   7 293.510 30.3526  47
  -8   8  -7 322.891 27.2146  48
  -8   8  -7 276.453 23.0626  45
   8  -8   7 271.038 26.2525  22
   8  -8   7 260.097 29.1153  21
  -8   8  -7 308.706 27.5074  39
   8  -7  -5 625.405 43.3587  40
   8  -7  -4 721.577 50.7247  40
   8  -7  -4 757.949 52.8404  21
   8  -7  -3 2014.28 83.3156  47
  -8   7   3 1979.28 79.5594  43
  -8   7   3 2147.15 91.2728  41
   8  -7  -3 2045.12 93.0090  40
   8  -7  -3 2077.63 94.6041  21
  -8   7   2 1390.54 69.4240  20
   8  -7  -2 1337.60 71.9588  47
  -8   7   2 1326.10 71.9455  43
  -8   7   2 1435.25 76.2169  41
   8  -7  -2 1384.76 78.9708  40
   8  -7  -2 1421.63 81.8018  21
  -8   7   1 886.226 59.1017  20
   8  -7  -1 800.548 58.6885  47
  -8   7   1 830.538 59.4461  43
  -8   7   1 896.398 61.4365  41
   8  -7  -1 798.347 63.2296  40
   8  -7  -1 792.032 62.9854  21
  -8   7   0 6367.82 172.778  20
   8  -7   0 5967.22 173.205  47
  -8   7   0 6362.12 177.501  43
  -8   7   0 6088.99 163.717  41
   8  -7   0 6221.05 183.458  40
   8  -7   0 6308.80 187.887  21
  -8   7  -1 299.755 37.4387  20
   8  -7   1 310.745 40.2168  37
   8  -7   1 276.020 39.8632  36
   8  -7   1 267.169 37.5389  47
  -8   7  -1 273.668 37.9861  43
  -8   7  -1 268.042 31.6941  41
   8  -7   1 262.117 41.1195  40
   8  -7   1 289.742 43.3828  21
   8  -7   2 51.6158 19.1877  37
  -8   7  -2 50.7150 20.7949  20
   8  -7   2 52.6888 21.7220  36
   8  -7   2 48.2092 19.9888  47
  -8   7  -2 42.7296 18.0497  43
   8  -7   2 50.6475 22.2255  40
   8  -7   2 43.1829 24.4929  21
  -8   7  -3 1557.52 81.7264  20
   8  -7   3 1584.91 88.6502  37
   8  -7   3 1493.13 81.5922  36
  -8   7  -3 1540.74 70.6935  48
   8  -7   3 1490.63 85.8060  47
  -8   7  -3 1577.51 82.3897  43
   8  -7   3 1585.06 90.9000  40
   8  -7   3 1664.62 95.5237  21
  -8   7  -3 1521.62 72.0940  39
  -8   7  -4 1203.96 68.8004  20
   8  -7   4 1127.62 75.2580  37
   8  -7   4 1128.47 67.9340  36
  -8   7  -4 1181.17 62.9829  48
   8  -7   4 1084.03 72.3730  47
  -8   7  -4 1121.32 66.9676  43
   8  -7   4 1201.81 76.3985  40
   8  -7   4 1121.72 76.5141  21
  -8   7  -4 1085.88 60.9448  39
   8  -7   5 3.57162 15.2492  37
  -8   7  -5 7.96067 14.2396  20
  -8   7  -5 8.86776 12.3868  48
   8  -7   5 3.81149 14.0322  47
  -8   7  -5 14.4081 10.1566  45
  -8   7  -5 5.44013 12.2286  43
   8  -7   5 3.88454 17.3859  40
  -8   7  -5 5.01394 10.2223  39
   8  -7   5 7.16265 19.1712  21
   8  -7   6 719.236 48.6702  12
  -8   7  -6 699.070 44.9995  20
   8  -7   6 696.507 56.1276  37
  -8   7  -6 711.233 46.9444  48
   8  -7   6 749.891 56.1995  47
  -8   7  -6 707.931 43.7945  45
  -8   7  -6 692.187 44.9382  43
   8  -7   6 654.093 52.3215  40
   8  -7   6 735.498 57.8379  21
  -8   7  -6 739.353 48.4958  39
   8  -7   7 842.209 50.1894  12
   8  -7   7 819.944 57.4458  37
  -8   7  -7 828.288 48.4399  48
   8  -7   7 857.021 55.6417  47
  -8   7  -7 810.133 45.3712  45
   8  -7   7 861.143 51.7158  22
   8  -7   7 825.834 54.5711  40
   8  -7   7 825.880 57.3462  21
  -8   7  -7 884.119 50.8374  39
  -8   7  -8 362.330 30.1808  48
   8  -7   8 361.562 33.7831  47
  -8   7  -8 352.470 28.0739  45
   8  -7   8 368.855 31.4501  22
   8  -7   8 322.194 30.7839  40
   8  -7   8 365.278 34.7507  21
  -8   7  -8 346.185 30.0466  39
   8  -7   8 344.366 30.1002  12
  -8   6   6 224.861 25.4175  15
   8  -6  -6 274.115 33.6516  40
   8  -6  -5 471.292 45.4991  40
   8  -6  -5 477.978 45.6145  21
  -8   6   4 2419.10 95.5231  43
   8  -6  -4 2603.14 112.407  40
   8  -6  -4 2711.72 114.846  21
  -8   6   3 2557.14 100.543  20
  -8   6   3 2515.63 107.266  43
  -8   6   3 2636.18 113.060  41
   8  -6  -3 2648.70 118.638  40
   8  -6  -3 2593.97 116.794  21
  -8   6   2 5403.59 160.932  20
  -8   6   2 5585.56 171.155  43
  -8   6   2 5534.33 169.263  41
   8  -6  -2 5615.07 181.614  40
   8  -6  -2 5517.07 179.138  21
  -8   6   1 150.844 29.5146  20
   8  -6  -1 160.764 29.7225  47
  -8   6   1 160.335 31.9851  43
  -8   6   1 148.100 28.1842  41
   8  -6  -1 172.075 35.7911  40
   8  -6  -1 123.813 27.9705  21
  -8   6   0 559.264 53.3194  20
   8  -6   0 455.994 48.5339  47
  -8   6   0 532.020 54.1688  43
  -8   6   0 457.968 46.1816  41
   8  -6   0 539.754 59.5460  40
   8  -6   0 508.797 56.4426  21
  -8   6  -1 54.1849 25.8621  20
   8  -6   1 37.1925 25.0900  36
   8  -6   1 30.6173 19.9668  47
  -8   6  -1 10.7316 20.4115  43
   8  -6   1 59.5711 29.1619  40
   8  -6   1 68.7184 29.6098  21
  -8   6  -2 8374.51 214.476  20
   8  -6   2 7880.06 215.072  37
   8  -6   2 8254.16 224.263  36
  -8   6  -2 7579.64 187.079  48
   8  -6   2 7318.56 209.481  47
  -8   6  -2 7974.14 210.638  43
   8  -6   2 8327.48 234.744  40
   8  -6   2 8102.84 235.085  21
  -8   6  -2 7756.44 185.813  39
  -8   6  -3 975.997 68.6717  20
   8  -6   3 964.344 72.8525  37
   8  -6   3 949.409 72.0917  36
  -8   6  -3 958.612 63.0580  48
   8  -6   3 911.270 69.9398  47
  -8   6  -3 888.302 64.2707  43
   8  -6   3 949.943 76.9145  40
   8  -6   3 1119.99 83.8905  21
  -8   6  -3 997.986 63.3048  39
   8  -6   4 64.8103 22.1253  37
  -8   6  -4 33.7787 17.7368  20
   8  -6   4 17.9755 18.0077  36
  -8   6  -4 52.0398 19.3746  48
   8  -6   4 15.4901 15.8414  47
  -8   6  -4 51.5645 15.1134  45
  -8   6  -4 16.4290 12.8763  43
   8  -6   4 14.8314 21.6920  40
  -8   6  -4 61.7887 18.3519  39
   8  -6   4 31.6207 22.7474  21
   8  -6   5 69.3424 22.4915  37
  -8   6  -5 112.018 24.0288  20
   8  -6   5 94.6425 23.5817  36
  -8   6  -5 86.1848 21.4197  48
   8  -6   5 63.9852 18.7192  47
  -8   6  -5 86.0367 17.2263  45
  -8   6  -5 84.7213 19.0997  43
   8  -6   5 104.012 28.7159  40
  -8   6  -5 97.9191 22.6941  39
   8  -6   5 72.8915 23.9331  21
   8  -6   6 806.408 55.3840  12
  -8   6  -6 829.464 52.0200  20
   8  -6   6 859.831 64.7346  37
  -8   6  -6 888.755 56.0174  48
   8  -6   6 863.682 62.5233  47
  -8   6  -6 817.447 50.6705  45
   8  -6   6 801.095 56.2304  22
   8  -6   6 868.096 66.3734  40
   8  -6   6 893.217 68.6533  21
  -8   6  -6 911.514 58.0841  39
   8  -6   7 276.329 36.3626  37
   8  -6   7 243.002 30.0384  12
  -8   6  -7 297.920 33.0187  48
   8  -6   7 257.608 33.6728  47
  -8   6  -7 269.602 29.2560  45
   8  -6   7 238.012 29.8663  22
   8  -6   7 272.590 37.3258  40
  -8   6  -7 254.195 30.1593  39
   8  -6   7 265.160 36.9956  21
  -8   6  -8 247.178 26.8772  48
   8  -6   8 239.726 29.3517  47
  -8   6  -8 251.336 25.9208  45
   8  -6   8 242.660 32.6469  40
   8  -6   8 218.885 26.9790  22
  -8   6  -8 201.258 25.2089  39
   8  -6   8 222.442 32.6200  21
   8  -6   8 220.048 27.7229  12
  -8   6  -9 38.6687 12.8939  48
  -8   6  -9 21.6394 9.43429  45
   8  -6   9 12.0401 10.3827  22
   8  -6   9 30.7852 13.4025  40
   8  -6   9 27.5160 13.9245  21
  -8   6  -9 13.7100 8.85393  39
  -8   5   7 5874.86 126.602  24
  -8   5   7 5810.09 137.245  15
  -8   5   6 368.447 31.5866  24
   8  -5  -6 406.115 45.5359  40
  -8   5   5 20.9625 13.6449  24
  -8   5   5-3.87420 14.6521  43
   8  -5  -5 9.28993 18.9873  40
   8  -5  -5 36.9629 18.6885  21
  -8   5   4 456.129 40.9224  24
  -8   5   4 425.949 46.6659  43
   8  -5  -4 491.133 54.5750  40
   8  -5  -4 437.306 50.8711  21
  -8   5   3 16499.4 320.396  20
  -8   5   3 17080.5 340.869  43
  -8   5   3 17252.8 344.147  41
   8  -5  -3 17838.5 364.747  40
   8  -5  -3 16529.8 345.682  21
  -8   5   2 288.902 38.9301  20
  -8   5   2 331.751 44.8442  43
  -8   5   2 290.739 40.4608  41
   8  -5  -2 356.471 50.4575  40
   8  -5  -2 218.445 38.9998  21
  -8   5   1 943.158 70.6695  20
  -8   5   1 924.287 73.9246  43
  -8   5   1 843.941 66.3166  41
   8  -5  -1 1002.23 80.9613  40
   8  -5  -1 866.526 73.7037  21
  -8   5   0 937.037 70.7909  20
  -8   5   0 829.518 67.8890  43
   8  -5   0 958.582 81.2451  40
   8  -5   0 875.072 76.8900  21
  -8   5  -1 7189.76 206.129  20
   8  -5   1 7277.82 221.958  36
  -8   5  -1 6785.99 186.761  48
  -8   5  -1 7169.39 207.559  43
   8  -5   1 7465.51 230.668  40
   8  -5   1 7257.59 227.582  21
  -8   5  -2 4379.54 155.923  20
   8  -5   2 4241.51 167.324  36
  -8   5  -2 4190.97 143.755  48
  -8   5  -2 3960.67 138.519  15
  -8   5  -2 4357.38 155.600  43
   8  -5   2 4327.84 175.298  40
   8  -5   2 4469.97 174.968  21
  -8   5  -2 4228.03 138.876  39
  -8   5  -3 490.341 50.0561  20
   8  -5   3 398.362 47.6221  37
   8  -5   3 443.686 55.0898  36
  -8   5  -3 439.380 45.7964  48
   8  -5   3 430.118 48.9650  47
  -8   5  -3 503.677 50.2721  43
   8  -5   3 509.616 61.9620  40
  -8   5  -3 449.524 45.1288  39
   8  -5   3 429.142 56.1311  21
  -8   5  -4 1458.13 82.7632  20
   8  -5   4 1322.09 86.0102  37
   8  -5   4 1429.07 91.9579  36
  -8   5  -4 1486.07 81.4989  48
   8  -5   4 1347.30 84.4960  47
  -8   5  -4 1445.70 72.1879  45
  -8   5  -4 1385.06 79.1202  43
   8  -5   4 1427.47 96.1900  40
   8  -5   4 1460.31 97.2822  21
  -8   5  -4 1473.23 80.6280  39
   8  -5   5 133.147 27.9415  37
  -8   5  -5 132.735 25.3083  20
   8  -5   5 101.829 21.7492  12
   8  -5   5 123.736 28.7041  36
  -8   5  -5 140.108 28.0769  48
   8  -5   5 145.940 29.3634  47
  -8   5  -5 129.611 23.3591  45
  -8   5  -5 120.038 22.4188  43
   8  -5   5 97.3821 20.4737  22
   8  -5   5 115.593 32.7940  40
  -8   5  -5 137.995 27.3688  39
   8  -5   5 98.1813 28.7955  21
   8  -5   6 260.385 39.1682  37
  -8   5  -6 231.858 28.6990  20
   8  -5   6 237.261 33.4044  12
   8  -5   6 253.535 37.8482  36
  -8   5  -6 259.366 32.7316  48
   8  -5   6 251.263 34.8272  47
  -8   5  -6 231.408 29.2091  45
   8  -5   6 202.116 30.5974  22
   8  -5   6 256.096 41.2553  40
  -8   5  -6 235.859 32.5183  39
   8  -5   6 233.801 39.7289  21
   8  -5   7 1378.81 74.1064  36
  -8   5  -7 1481.80 73.3705  48
   8  -5   7 1403.27 75.3585  47
  -8   5  -7 1493.07 69.8781  45
   8  -5   7 1434.21 74.7210  22
   8  -5   7 1456.65 86.0123  40
   8  -5   7 1569.86 89.7882  21
  -8   5  -7 1551.11 75.3115  39
   8  -5   7 1486.09 75.6692  12
   8  -5   8 235.293 30.1455  12
  -8   5  -8 204.482 26.2268  48
   8  -5   8 243.327 30.7899  47
  -8   5  -8 224.306 26.8940  45
   8  -5   8 211.467 28.2617  22
   8  -5   8 187.093 29.7387  40
   8  -5   8 229.928 34.6783  21
  -8   5  -8 202.290 26.3988  39
   8  -5   9 83.1953 18.5902  12
  -8   5  -9 70.6854 14.5219  48
  -8   5  -9 92.3534 17.1061  45
   8  -5   9 73.1217 17.0919  22
   8  -5   9 75.0374 18.5032  40
   8  -5   9 97.6373 21.6469  21
  -8   5  -9 54.0778 13.2877  39
  -8   4   8 98.8149 17.1862  24
   8  -4  -8 118.237 28.2875  40
  -8   4   7 3553.00 103.470  24
  -8   4   7 3297.16 112.935  15
  -8   4   6-4.43839 14.8427  24
  -8   4   6 13.2363 13.7485  43
   8  -4  -6 37.8157 22.4431  40
  -8   4   5 535.601 44.1944  24
  -8   4   5 568.815 53.7643  43
   8  -4  -5 475.385 54.7917  40
  -8   4   4 7463.84 197.803  20
  -8   4   4 7652.10 182.185  24
  -8   4   4 7474.84 215.011  43
   8  -4  -4 7810.02 227.134  40
  -8   4   3 792.862 63.4539  20
  -8   4   3 863.310 71.1658  43
   8  -4  -3 799.276 72.9301  40
   8  -4  -3 750.167 67.1396  21
  -8   4   2 40.2347 20.6796  20
  -8   4   2 53.5532 24.6172  43
   8  -4  -2 60.3449 27.4618  40
   8  -4  -2 68.8715 25.8489  21
  -8   4   1 4828.65 170.055  20
  -8   4   1 4970.96 176.633  43
   8  -4  -1 5177.15 192.777  40
   8  -4  -1 4951.58 183.516  21
  -8   4   0 1228.57 83.6851  20
   8  -4   0 1257.95 92.3509  36
  -8   4   0 1255.16 79.5177  48
  -8   4   0 1222.23 84.2907  43
   8  -4   0 1368.40 100.357  40
   8  -4   0 1231.82 91.1167  21
  -8   4  -1 931.918 73.5775  20
   8  -4   1 928.193 79.1671  36
  -8   4  -1 891.250 68.1799  48
  -8   4  -1 929.227 73.1897  43
   8  -4   1 865.378 81.2577  40
   8  -4   1 921.584 80.9792  21
  -8   4  -1 869.004 61.8892  39
  -8   4  -2 1623.72 95.3326  20
   8  -4   2 1536.14 102.715  36
  -8   4  -2 1483.87 87.5111  48
  -8   4  -2 1535.01 84.9982  15
  -8   4  -2 1472.03 89.4847  43
   8  -4   2 1664.16 107.668  40
   8  -4   2 1641.17 106.740  21
  -8   4  -2 1550.97 84.7065  39
  -8   4  -3 4059.57 149.468  20
   8  -4   3 4193.92 169.184  36
  -8   4  -3 4080.20 145.386  48
  -8   4  -3 3931.94 142.859  43
   8  -4   3 4155.96 169.594  40
   8  -4   3 4182.90 170.295  21
  -8   4  -3 3908.97 139.648  39
   8  -4   4 76.8403 24.8467  37
  -8   4  -4 127.277 26.9430  20
   8  -4   4 59.5054 24.2756  36
  -8   4  -4 71.5772 23.5744  48
  -8   4  -4 142.814 24.0314  45
  -8   4  -4 88.8974 22.2611  43
   8  -4   4 93.6538 32.8174  40
  -8   4  -4 79.3105 21.8229  39
   8  -4   4 56.4060 25.5713  21
   8  -4   5 475.366 46.3066  12
  -8   4  -5 513.186 47.5679  20
   8  -4   5 505.393 53.0954  37
   8  -4   5 504.002 58.4412  36
  -8   4  -5 522.528 49.2662  48
  -8   4  -5 557.344 46.8014  45
   8  -4   5 437.260 44.3307  22
   8  -4   5 540.555 60.3709  40
   8  -4   5 464.759 56.0113  21
  -8   4  -5 552.242 51.2444  39
   8  -4   6 1529.79 90.4172  36
  -8   4  -6 1556.53 80.9349  48
  -8   4  -6 1510.82 75.4667  45
   8  -4   6 1514.87 81.1691  22
   8  -4   6 1540.99 95.7934  40
   8  -4   6 1556.50 97.2637  21
  -8   4  -6 1582.49 81.9369  39
   8  -4   6 1480.46 80.1266  12
   8  -4   7 30.0022 15.8252  12
   8  -4   7 11.6302 18.4571  36
  -8   4  -7 23.3012 15.1377  48
  -8   4  -7 31.3520 13.9263  45
   8  -4   7 36.9764 16.8301  22
   8  -4   7 53.7769 25.7747  40
  -8   4  -7 36.1480 16.9709  39
   8  -4   7 41.1085 22.2850  21
   8  -4   8 570.148 44.8275  36
  -8   4  -8 559.690 42.2096  48
  -8   4  -8 645.725 44.5490  45
   8  -4   8 633.517 48.2043  22
   8  -4   8 565.309 51.2910  40
   8  -4   8 650.651 55.9744  21
  -8   4  -8 615.698 45.1168  39
   8  -4   8 623.063 48.9121  12
  -8   4  -9 254.664 24.7838  48
  -8   4  -9 283.940 27.5911  45
   8  -4   9 298.049 30.3451  22
   8  -4   9 255.721 32.0004  40
   8  -4   9 306.131 35.2296  21
  -8   4  -9 266.665 27.6472  39
  -8   3   9 827.498 43.2173  24
  -8   3   8 10211.8 209.170  15
  -8   3   8 10871.7 203.257  24
  -8   3   7 2603.15 93.5341  24
  -8   3   7 2455.58 103.193  15
  -8   3   7 2267.49 98.2424  43
   8  -3  -7 2634.09 120.165  40
  -8   3   6 970.894 59.5646  24
  -8   3   6 898.203 66.6556  15
  -8   3   6 881.497 67.0893  43
   8  -3  -6 1015.36 77.3117  40
  -8   3   5 1209.96 69.2668  24
  -8   3   5 1154.33 80.8476  43
   8  -3  -5 1202.80 86.0569  40
  -8   3   4 147.962 29.7399  20
  -8   3   4 151.877 30.4929  24
  -8   3   4 99.9471 27.4585  43
   8  -3  -4 91.1977 29.3466  40
  -8   3   3 4698.13 165.143  20
  -8   3   3 4793.92 147.868  24
  -8   3   3 4686.76 173.273  43
   8  -3  -3 4830.16 183.989  40
   8  -3  -3 4403.88 163.720  21
  -8   3   2 21021.6 400.396  20
  -8   3   2 20989.1 412.723  43
   8  -3  -2 22013.3 438.073  40
  -8   3   1 4574.51 167.589  20
  -8   3   1 4683.85 162.630  48
  -8   3   1 4780.73 174.575  43
   8  -3  -1 4594.80 182.596  40
   8  -3  -1 4513.43 174.172  21
  -8   3   0 231.930 38.9606  20
   8  -3   0 214.189 40.6240  36
  -8   3   0 363.239 45.9031  48
  -8   3   0 216.419 35.7858  15
  -8   3   0 245.998 39.4087  43
   8  -3   0 235.544 41.9721  40
   8  -3   0 243.837 42.3280  21
  -8   3  -1 23.8858 19.0119  20
   8  -3   1 2.08965 32.1299  36
  -8   3  -1 26.6089 18.1112  48
  -8   3  -1 10.3982 17.2122  15
  -8   3  -1 11.8779 17.9214  43
   8  -3   1 57.9114 28.5053  40
  -8   3  -1 44.7277 18.3012  39
   8  -3   1 11.4340 23.5278  21
  -8   3  -2 7467.31 215.479  20
   8  -3   2 7462.89 237.653  36
  -8   3  -2 7397.05 208.807  48
  -8   3  -2 6922.15 193.744  15
  -8   3  -2 7065.25 203.544  43
   8  -3   2 7183.62 232.158  40
   8  -3   2 7336.39 233.997  21
  -8   3  -2 7183.23 197.028  39
  -8   3  -3 95.4222 26.0945  20
   8  -3   3 125.245 35.1853  36
  -8   3  -3 56.9579 27.1000  48
  -8   3  -3 24.8196 12.7058  45
  -8   3  -3 49.5444 17.7027  43
   8  -3   3 42.7284 23.1862  40
  -8   3  -3 35.9886 17.8784  39
   8  -3   3 69.2504 28.2375  21
  -8   3  -4 1898.23 96.5362  20
   8  -3   4 1967.26 116.002  36
  -8   3  -4 1801.84 95.6870  48
  -8   3  -4 1887.30 89.0003  45
   8  -3   4 1813.60 110.114  40
   8  -3   4 1873.17 113.198  21
  -8   3  -4 1987.46 99.0406  39
  -8   3  -5 613.298 51.0103  20
   8  -3   5 632.188 64.2079  36
  -8   3  -5 671.725 56.9675  48
  -8   3  -5 632.164 50.9579  45
   8  -3   5 649.058 53.3503  22
   8  -3   5 717.087 69.0465  40
   8  -3   5 646.450 64.8467  21
  -8   3  -5 643.151 54.8948  39
   8  -3   5 607.751 51.2032  12
   8  -3   6 91.0776 22.8522  12
   8  -3   6 58.6444 24.6713  36
  -8   3  -6 84.4728 23.0878  48
  -8   3  -6 77.5727 19.7651  45
   8  -3   6 69.8403 22.2209  22
   8  -3   6 120.496 33.5824  40
  -8   3  -6 95.2394 23.3985  39
   8  -3   6 36.9673 22.4358  21
   8  -3   7 1395.87 83.1917  36
  -8   3  -7 1471.56 74.8003  48
  -8   3  -7 1547.75 75.1724  45
   8  -3   7 1484.53 77.1224  22
   8  -3   7 1474.26 87.8425  40
   8  -3   7 1552.64 92.1443  21
  -8   3  -7 1585.71 79.0396  39
   8  -3   7 1504.60 78.6154  12
   8  -3   8 23.8997 16.3299  36
  -8   3  -8 9.26491 11.2736  48
  -8   3  -8-5.26484 12.6803  45
   8  -3   8 15.1801 14.6681  22
   8  -3   8 17.7657 17.6702  40
   8  -3   8 44.4206 21.7265  21
  -8   3  -8 2.97579 11.5493  39
  -8   3  -9 705.833 42.9224  45
   8  -3   9 658.833 43.0446  22
   8  -3   9 636.458 48.2040  40
   8  -3   9 711.779 51.6520  21
  -8   3  -9 664.056 40.1821  39
  -8   2  10 6151.74 125.018  24
  -8   2   9 417.708 33.8003  27
  -8   2   9 696.183 42.9322  24
  -8   2   8 833.388 57.1645  15
  -8   2   8 835.773 51.2949  24
  -8   2   8 807.994 56.9452  43
  -8   2   7 4808.73 154.671  15
  -8   2   7 5210.96 140.676  24
  -8   2   7 4868.61 161.426  43
  -8   2   6 1250.99 69.6839  24
  -8   2   6 1224.36 79.4904  15
  -8   2   6 1234.47 84.3728  43
   8  -2  -6 1137.31 78.8170  40
  -8   2   5 9828.72 238.754  20
  -8   2   5 10221.8 222.718  24
  -8   2   5 9848.21 251.145  15
  -8   2   5 10036.5 261.525  43
   8  -2  -5 9545.13 253.527  40
  -8   2   4 1414.78 88.6983  20
  -8   2   4 1445.82 78.8740  24
  -8   2   4 1447.48 91.1825  15
  -8   2   4 1454.00 97.3095  43
   8  -2  -4 1451.93 95.5211  40
  -8   2   3 939.833 74.8590  20
  -8   2   3 876.212 68.4229  48
  -8   2   3 1031.90 78.8564  15
  -8   2   3 911.907 78.5945  43
   8  -2  -3 946.042 79.7466  40
  -8   2   2 3755.07 151.713  20
  -8   2   2 3751.59 148.136  48
  -8   2   2 3981.83 156.816  15
  -8   2   2 3885.32 157.997  43
   8  -2  -2 3783.28 163.064  40
  -8   2   1 6401.98 201.992  20
   8  -2  -1 6247.22 215.375  36
  -8   2   1 6136.32 195.562  48
  -8   2   1 6371.23 201.836  15
  -8   2   1 6521.14 204.370  43
   8  -2  -1 6449.37 216.106  40
   8  -2  -1 5806.74 195.139  21
  -8   2   0 3618.64 148.268  20
   8  -2   0 3473.56 159.406  36
  -8   2   0 3462.89 141.950  48
  -8   2   0 3261.81 137.953  15
  -8   2   0 3353.42 142.212  43
   8  -2   0 3402.73 155.564  40
   8  -2   0 3059.42 142.568  21
  -8   2   0 3268.01 125.543  39
  -8   2  -1 4632.22 168.425  20
   8  -2   1 4664.79 187.429  36
  -8   2  -1 4606.28 165.672  48
  -8   2  -1 4445.53 157.676  15
  -8   2  -1 4461.89 160.968  43
   8  -2   1 4610.41 181.663  40
   8  -2   1 4282.51 172.402  21
  -8   2  -1 4312.25 149.633  39
  -8   2  -2 2568.30 121.817  20
   8  -2   2 2403.84 134.724  36
  -8   2  -2 2391.46 116.345  48
  -8   2  -2 2302.70 106.366  15
  -8   2  -2 2449.20 113.249  43
   8  -2   2 2361.67 129.112  40
   8  -2   2 2397.70 130.150  21
  -8   2  -2 2378.78 111.330  39
  -8   2  -3 3743.77 143.420  20
   8  -2   3 3794.78 167.703  36
  -8   2  -3 3891.07 148.611  48
  -8   2  -3 3606.98 126.617  45
   8  -2   3 3656.26 158.918  40
   8  -2   3 3746.75 160.726  21
  -8   2  -3 3686.15 140.233  39
  -8   2  -4 5448.00 169.031  20
   8  -2   4 6019.58 207.910  36
  -8   2  -4 6020.93 181.651  48
   8  -2   4 5749.48 202.614  16
  -8   2  -4 5717.86 164.372  45
   8  -2   4 5782.96 198.030  40
   8  -2   4 5702.56 198.379  21
  -8   2  -4 5868.72 178.747  39
   8  -2   5 68.2787 22.5809  12
   8  -2   5-16.9376 31.4456  36
  -8   2  -5 13.4482 17.3304  48
  -8   2  -5 14.0242 16.2740  45
   8  -2   5 9.52210 15.3829  22
   8  -2   5 22.8144 25.6670  40
  -8   2  -5 25.1964 21.0291  39
   8  -2   5-23.8557 29.9073  21
   8  -2   6 3930.02 154.312  36
  -8   2  -6 3871.25 132.073  48
  -8   2  -6 3916.97 128.789  45
   8  -2   6 3867.25 129.671  22
   8  -2   6 3727.62 147.143  40
   8  -2   6 3873.43 152.560  21
  -8   2  -6 4023.43 136.289  39
   8  -2   6 3874.22 132.950  12
   8  -2   7 105.146 30.9513  36
  -8   2  -7 127.632 23.2876  48
  -8   2  -7 118.579 23.3482  45
   8  -2   7 144.162 27.8364  22
   8  -2   7 104.890 26.7728  40
   8  -2   7 156.258 33.1934  21
  -8   2  -7 115.727 24.3276  39
   8  -2   8 634.050 51.7284  36
  -8   2  -8 583.335 40.2518  48
  -8   2  -8 694.684 47.1363  45
   8  -2   8 728.943 48.8587  22
   8  -2   8 642.456 52.3209  40
   8  -2   8 732.668 57.3127  21
  -8   2  -8 648.490 45.3994  39
  -8   2  -9 377.668 30.4657  46
  -8   2  -9 311.981 28.6395  45
   8  -2   9 350.828 30.2536  22
   8  -2   9 322.114 33.3388  40
   8  -2   9 332.210 35.2568  21
  -8   1  10 1295.87 58.7725  27
  -8   1  10 1438.29 57.2630  24
  -8   1   9 516.428 40.3610  27
  -8   1   9 639.105 42.7891  24
  -8   1   8 704.500 54.0974  15
  -8   1   8 730.871 49.0290  24
  -8   1   8 752.433 59.6995  43
  -8   1   7 355.508 36.8169  24
  -8   1   7 296.917 38.4763  15
  -8   1   7 348.235 45.3926  43
  -8   1   6 3074.96 111.364  24
  -8   1   6 2817.67 125.710  15
  -8   1   6 2895.30 132.302  43
  -8   1   6 2628.73 119.803  14
  -8   1   5 10365.6 224.580  24
  -8   1   5 9609.30 252.717  15
  -8   1   5 10255.7 268.598  43
  -8   1   5 9610.87 243.192  20
  -8   1   4 2887.03 128.960  20
  -8   1   4 2728.13 122.916  48
  -8   1   4 3157.45 116.880  24
  -8   1   4 2842.48 131.396  15
  -8   1   4 2863.98 135.629  43
  -8   1   3 2092.54 111.478  20
   8  -1  -3 1981.48 114.307  36
  -8   1   3 2010.70 108.660  48
  -8   1   3 2237.69 117.242  15
  -8   1   3 2170.02 116.772  43
   8  -1  -3 2020.47 111.527  40
  -8   1   2 203.412 37.6915  20
   8  -1  -2 190.251 36.2896  36
  -8   1   2 213.592 38.1705  48
  -8   1   2 244.074 42.4832  15
  -8   1   2 219.432 38.3386  43
   8  -1  -2 213.148 38.2369  40
  -8   1   1 6625.43 205.896  20
   8  -1  -1 6406.01 219.628  36
  -8   1   1 6303.25 200.289  48
  -8   1   1 6291.69 200.871  15
  -8   1   1 6351.74 202.136  43
   8  -1  -1 6207.75 207.067  40
  -8   1   0 12494.4 295.709  20
   8  -1   0 12492.4 322.452  36
  -8   1   0 12555.9 293.359  48
  -8   1   0 12340.6 287.039  15
  -8   1   0 11954.9 284.827  43
   8  -1   0 12049.4 301.775  40
  -8   1   0 11910.6 266.760  39
  -8   1  -1 423.235 50.7028  20
   8  -1   1 423.755 56.8775  36
  -8   1  -1 545.869 57.2425  48
  -8   1  -1 361.480 44.9779  15
  -8   1  -1 373.312 46.3597  43
   8  -1   1 352.421 50.6606  40
  -8   1  -1 382.922 45.7001  39
   8  -1   1 316.730 48.0522  21
  -8   1  -2 20034.6 383.789  20
   8  -1   2 20731.7 427.879  36
  -8   1  -2 20321.6 384.855  48
  -8   1  -2 18946.9 357.308  15
   8  -1   2 18713.7 395.949  40
   8  -1   2 19464.4 398.688  21
  -8   1  -2 20032.7 376.299  39
   8  -1   3 5495.31 201.769  36
  -8   1  -3 5202.56 172.044  48
   8  -1   3 5470.52 209.604  16
  -8   1  -3 4931.35 152.978  45
   8  -1   3 4925.11 179.562  40
   8  -1   3 5078.21 185.214  21
  -8   1  -3 5197.91 169.950  39
  -8   1  -3 4966.98 165.925  20
   8  -1   4 38.4174 27.4570  36
  -8   1  -4 66.2495 29.1044  48
   8  -1   4 29.2439 28.8556  16
  -8   1  -4 68.6947 26.0224  45
   8  -1   4-5.68030 22.1554  40
  -8   1  -4 67.2761 29.5252  39
   8  -1   4 11.8053 21.2494  21
   8  -1   5 10145.1 267.196  36
   8  -1   5 9117.40 249.458  16
  -8   1  -5 9309.59 225.812  48
  -8   1  -5 9976.40 224.326  45
   8  -1   5 9243.80 241.971  40
   8  -1   5 9437.29 250.857  21
  -8   1  -5 9806.26 234.865  39
   8  -1   6 173.743 37.1103  36
  -8   1  -6 179.232 30.6202  48
  -8   1  -6 210.804 35.1746  45
   8  -1   6 188.474 30.3193  22
   8  -1   6 210.508 37.5639  40
  -8   1  -6 221.461 35.4026  39
   8  -1   6 140.190 34.6630  21
   8  -1   7 1961.73 98.9335  36
  -8   1  -7 1817.65 77.0104  48
  -8   1  -7 2270.21 86.6579  46
  -8   1  -7 2078.77 88.2178  45
   8  -1   7 2048.90 85.2161  22
   8  -1   7 2024.92 95.3506  40
   8  -1   7 2033.90 99.3947  21
  -8   1  -7 2074.70 88.6520  39
   8  -1   8 458.542 42.6198  36
  -8   1  -8 500.237 37.6259  46
  -8   1  -8 492.859 39.5143  45
   8  -1   8 493.398 38.2547  22
   8  -1   8 448.094 40.5029  40
   8  -1   8 501.445 46.0932  21
  -8   1  -8 440.776 36.3529  39
  -8   1  -9 294.695 26.5897  45
  -8   0  10 1235.81 61.0478  27
  -8   0  10 1359.82 55.0028  24
  -8   0   9 1541.76 73.2651  27
  -8   0   9 1727.87 69.4164  24
  -8   0   8 365.839 36.8866  27
  -8   0   8 331.838 39.2207  15
  -8   0   8 348.106 34.6317  24
  -8   0   8 366.638 44.1516  43
  -8   0   7 2458.38 112.347  15
  -8   0   7 2614.72 97.4209  24
  -8   0   7 2439.22 119.558  43
  -8   0   7 2334.63 112.071  14
  -8   0   6 127.532 33.3722  15
  -8   0   6 116.684 26.1219  24
  -8   0   6 122.268 34.8994  43
  -8   0   6 110.487 33.2914  14
  -8   0   5 12280.3 283.301  48
  -8   0   5 13020.9 299.200  15
  -8   0   5 13356.8 310.866  43
   8   0  -4 9718.46 255.286  36
  -8   0   4 10451.9 265.171  48
  -8   0   4 10694.2 269.564  15
  -8   0   4 10715.5 275.540  43
  -8   0   4 10376.0 262.711  20
   8   0  -3 9957.17 268.038  36
  -8   0   3 10066.0 262.959  48
  -8   0   3 10287.9 265.450  15
  -8   0   3 10432.6 269.936  43
  -8   0   3 10129.6 264.466  20
  -8   0   2 55.0867 26.1820  20
   8   0  -2-4.13148 27.3219  36
  -8   0   2 27.4500 17.9546  48
  -8   0   2 27.5455 18.0736  15
  -8   0   2 32.8636 21.7791  43
   8   0  -1 9772.25 273.794  36
  -8   0   1 9184.67 248.203  48
  -8   0   1 9472.50 250.233  15
  -8   0   1 9310.27 248.662  43
  -8   0   1 9540.90 231.501  39
  -8   0   1 9659.42 256.248  20
  -8   0   0 75.7178 28.2136  20
   8   0   0 104.116 35.4272  36
  -8   0   0 84.8402 32.1112  48
  -8   0   0 48.6997 22.6728  15
  -8   0   0 65.1413 24.2412  43
  -8   0   0 81.1791 26.9130  39
   8   0   1 24535.0 476.062  36
  -8   0  -1 24034.6 435.059  48
  -8   0  -1 23058.8 416.087  15
   8   0   1 22506.5 429.249  40
  -8   0  -1 23884.5 423.111  39
  -8   0  -1 23752.9 434.074  20
   8   0   2 4137.69 175.402  36
  -8   0  -2 3877.47 149.127  48
   8   0   2 4245.68 187.435  16
  -8   0  -2 3941.56 135.064  45
   8   0   2 3590.94 147.932  40
  -8   0  -2 3965.13 148.893  39
  -8   0  -2 3825.91 147.642  20
   8   0   3 99.3056 36.2165  36
  -8   0  -3 104.305 26.6528  48
   8   0   3 103.215 46.0445  16
  -8   0  -3 72.1697 24.5727  45
   8   0   3 87.8158 25.3296  40
  -8   0  -3 98.3339 31.4515  39
   8   0   3 98.5676 30.0585  21
   8   0   4 5268.85 191.174  36
  -8   0  -4 5083.07 162.800  48
   8   0   4 5486.80 201.902  16
  -8   0  -4 5326.04 160.291  45
   8   0   4 4795.70 166.597  40
   8   0   4 5176.91 175.807  21
  -8   0  -4 5563.41 172.965  39
   8   0   5 80.4909 30.4075  36
  -8   0  -5 84.2505 26.0386  48
   8   0   5 74.9595 31.4983  16
  -8   0  -5 96.0452 23.4211  46
  -8   0  -5 124.186 27.9736  45
   8   0   5 54.1754 23.9411  40
   8   0   5 88.0661 28.9620  21
  -8   0  -5 112.722 29.5373  39
   8   0   6 174.926 36.5162  36
  -8   0  -6 137.996 24.3289  48
   8   0   6 206.655 34.7400  16
  -8   0  -6 215.991 30.8137  46
  -8   0  -6 223.137 32.8274  45
   8   0   6 212.949 28.9062  22
   8   0   6 182.493 31.2739  40
   8   0   6 146.353 30.6602  21
  -8   0  -6 135.616 26.1034  39
   8   0   7 219.611 34.6526  36
  -8   0  -7 269.263 30.3238  46
  -8   0  -7 262.620 31.4439  45
   8   0   7 261.035 28.8453  22
   8   0   7 239.023 30.2202  40
   8   0   7 218.916 31.3739  21
  -8   0  -7 189.273 26.7211  39
   8   0   8 116.728 22.1678  36
  -8   0  -8 104.398 17.9747  46
  -8   0  -8 124.294 19.5662  45
   8   0   8 102.953 17.6137  22
   8   0   8 86.3354 18.1929  40
  -8   0  -8 111.373 17.0855  39
  -8  -1  11 2493.47 82.6054  27
  -8  -1  10 512.955 41.1170  27
  -8  -1   9 5323.48 146.809  27
  -8  -1   9 5285.86 153.396  14
  -8  -1   8 805.579 56.6574  27
  -8  -1   8 865.784 62.5022  15
  -8  -1   8 863.157 50.3536  24
  -8  -1   8 825.548 65.3166  14
  -8  -1   7 5483.31 173.999  15
  -8  -1   7 5711.96 188.008  43
  -8  -1   7 5707.23 186.919  14
  -8  -1   6 1809.00 100.202  15
  -8  -1   6 1783.89 105.932  43
  -8  -1   6 1974.33 110.813  14
  -8  -1   5 5087.33 177.405  48
  -8  -1   5 5369.06 182.337  15
  -8  -1   5 5361.09 187.755  43
  -8  -1   4 4732.65 173.762  48
  -8  -1   4 5017.83 176.229  15
  -8  -1   4 4995.97 180.055  43
   8   1  -3 2082.29 112.651  36
  -8  -1   3 2185.29 115.680  48
  -8  -1   3 2199.33 114.753  15
  -8  -1   3 2227.44 116.597  43
   8   1  -2 1132.05 85.7866  36
  -8  -1   2 1165.09 84.2969  48
  -8  -1   2 1146.67 82.6370  15
  -8  -1   2 1068.47 78.3890  43
   8   1  -1 158.594 38.4884  36
  -8  -1   1 133.632 33.0288  48
  -8  -1   1 153.518 34.1926  15
  -8  -1   1 135.788 29.6353  43
  -8  -1   1 165.918 33.2756  39
   8   1   0 22085.9 437.882  36
  -8  -1   0 21656.5 410.519  48
  -8  -1   0 20633.9 394.219  15
  -8  -1   0 20477.6 379.331  43
  -8  -1   0 21067.8 389.678  39
   8   1   1 2677.72 137.788  36
  -8  -1  -1 2648.49 125.717  48
   8   1   1 2927.87 159.524  16
  -8  -1  -1 2540.93 115.533  15
  -8  -1  -1 2579.31 119.645  39
   8   1   2 242.835 45.2408  36
  -8  -1  -2 283.100 41.5784  48
   8   1   2 282.911 54.9522  16
  -8  -1  -2 330.638 40.1746  45
  -8  -1  -2 261.634 40.0934  39
   8   1   3 1519.87 100.156  36
  -8  -1  -3 1614.29 90.1519  48
   8   1   3 1709.19 115.655  16
  -8  -1  -3 1553.79 84.5363  45
  -8  -1  -3 1636.32 93.0938  39
   8   1   4 981.566 79.3570  36
   8   1   4 1041.97 84.9331  16
  -8  -1  -4 1009.66 66.8641  48
  -8  -1  -4 1085.22 69.9692  45
   8   1   4 1011.49 70.0050  21
  -8  -1  -4 1016.77 71.3053  39
   8   1   5 35.4162 22.2042  36
  -8  -1  -5 19.8368 11.6256  48
   8   1   5-4.58767 23.4591  16
  -8  -1  -5 37.4777 16.0116  46
  -8  -1  -5 40.0014 17.2427  45
   8   1   5 48.0437 18.9531  21
  -8  -1  -5 45.5137 18.7905  39
   8   1   6 984.556 70.7363  36
   8   1   6 892.139 61.4183  16
  -8  -1  -6 958.270 54.8090  46
  -8  -1  -6 946.660 59.0644  45
   8   1   6 881.743 55.2288  40
   8   1   6 948.065 61.2539  21
  -8  -1  -6 880.834 57.2462  39
   8   1   7 938.145 61.8205  36
  -8  -1  -7 971.269 51.3535  46
  -8  -1  -7 973.189 54.9980  45
   8   1   7 979.264 48.2296  22
  -8  -1  -7 897.196 51.8089  39
   8   1   8 780.382 48.1793  36
  -8  -2  11 1357.61 60.9169  27
  -8  -2  10 3.85436 13.1029  27
  -8  -2  10-8.41027 19.2166  14
  -8  -2   9 410.914 39.2531  27
  -8  -2   9 415.076 44.4224  14
  -8  -2   8 3457.08 120.602  27
  -8  -2   8 3474.72 126.736  15
  -8  -2   8 3521.79 138.901  14
  -8  -2   7 2098.89 92.4225  27
  -8  -2   7 2006.05 101.474  15
  -8  -2   7 2011.64 108.762  43
  -8  -2   7 2114.34 112.631  14
  -8  -2   6 752.980 64.1495  15
  -8  -2   6 738.788 67.8724  43
  -8  -2   6 736.873 69.7260  14
  -8  -2   5 4465.39 164.334  15
  -8  -2   5 4591.59 170.691  43
  -8  -2   4 4444.39 167.318  48
  -8  -2   4 4513.67 165.993  15
  -8  -2   4 4468.23 167.465  43
  -8  -2   3 825.037 71.6793  48
  -8  -2   3 791.178 67.9256  15
  -8  -2   3 797.185 70.2113  43
   8   2  -2 385.678 50.2031  36
  -8  -2   2 324.459 44.1785  48
  -8  -2   2 370.409 47.4706  15
  -8  -2   2 427.598 48.7192  43
   8   2  -1 4328.23 166.654  36
  -8  -2   1 4239.07 160.439  48
  -8  -2   1 4127.04 155.678  15
  -8  -2   1 3899.62 142.401  43
  -8  -2   1 4005.66 147.047  39
   8   2   0 5338.84 190.962  36
  -8  -2   0 5511.76 183.029  48
   8   2   0 6081.68 225.337  16
  -8  -2   0 5420.20 176.124  15
  -8  -2   0 5417.58 175.852  39
   8   2   1 2133.72 116.437  36
   8   2   1 2309.43 172.128  49
  -8  -2  -1 2005.33 104.269  48
   8   2   1 2155.77 134.836  16
  -8  -2  -1 1897.90 96.6443  15
  -8  -2  -1 1808.70 89.8869  45
  -8  -2  -1 2021.34 104.521  39
   8   2   2 3107.05 140.086  36
  -8  -2  -2 2907.81 122.272  48
   8   2   2 3234.16 157.170  16
  -8  -2  -2 2989.65 118.263  45
  -8  -2  -2 3041.91 127.205  39
   8   2   3 748.750 67.1901  36
   8   2   3 738.195 73.5330  16
  -8  -2  -3 699.904 55.9110  48
  -8  -2  -3 740.845 57.2991  45
  -8  -2  -3 725.016 59.9379  39
   8   2   4 2446.12 115.427  36
   8   2   4 2357.78 118.450  16
  -8  -2  -4 2119.26 89.2782  48
  -8  -2  -4 2404.49 100.545  45
  -8  -2  -4 2297.98 102.424  39
   8   2   5 164.045 32.5531  36
   8   2   5 142.557 30.2578  16
  -8  -2  -5 151.919 22.7331  46
  -8  -2  -5 117.777 22.8206  45
  -8  -2  -5 169.549 27.4554  39
   8   2   6 681.866 53.7396  36
   8   2   6 686.146 49.3684  16
  -8  -2  -6 673.918 42.6342  46
  -8  -2  -6 678.566 46.4859  45
  -8  -2  -6 657.204 45.8386  39
   8   2   7 59.6771 17.9273  36
  -8  -2  -7 51.1561 13.0864  45
  -8  -3  11 213.636 26.7794  27
  -8  -3  11 135.284 21.3861  14
  -8  -3  10 733.520 49.6792  27
  -8  -3  10 666.841 51.1716  14
  -8  -3   9 176.044 29.5596  27
  -8  -3   9 168.670 30.6479  14
  -8  -3   8 4894.83 143.530  27
  -8  -3   8 4436.31 144.088  15
  -8  -3   8 4434.65 158.796  14
  -8  -3   7 3057.66 124.761  15
  -8  -3   7 3149.63 137.644  14
  -8  -3   6 1493.39 90.1820  15
  -8  -3   6 1513.90 95.3563  14
  -8  -3   5 3370.62 137.943  15
  -8  -3   5 3158.17 142.722  14
  -8  -3   4 16994.6 348.164  15
  -8  -3   4 16794.6 347.760  43
  -8  -3   3 5119.38 177.920  48
  -8  -3   3 4994.53 171.829  15
  -8  -3   3 4967.69 167.950  43
  -8  -3   2 422.497 49.3812  48
   8   3  -2 478.314 65.1626  16
  -8  -3   2 483.913 53.8414  15
  -8  -3   2 436.313 46.4337  39
  -8  -3   1 1128.05 79.5618  48
   8   3  -1 1322.72 102.748  16
  -8  -3   1 1150.97 78.4403  15
  -8  -3   1 1175.12 77.8539  39
   8   3   0 2198.20 112.118  36
   8   3   0 2406.12 195.973  49
  -8  -3   0 2051.43 104.991  48
   8   3   0 2266.38 133.693  16
  -8  -3   0 2080.77 103.107  15
  -8  -3   0 2166.82 106.318  39
   8   3   1 3358.89 138.032  36
   8   3   1 3753.90 185.211  49
  -8  -3  -1 3245.71 126.995  48
   8   3   1 3794.81 167.668  16
  -8  -3  -1 3175.14 122.101  15
  -8  -3  -1 3242.97 120.749  45
  -8  -3  -1 3427.37 133.791  39
   8   3   2 21.6030 22.1860  36
   8   3   2-8.73548 21.6873  49
  -8  -3  -2-3.66347 13.3741  48
   8   3   2 9.45969 30.5120  16
  -8  -3  -2-2.76466 16.6247  45
  -8  -3  -2-3.03891 17.5178  39
   8   3   3 2071.41 102.615  36
   8   3   3 2177.20 113.811  16
  -8  -3  -3 1831.35 80.8081  48
  -8  -3  -3 2032.20 92.2950  45
  -8  -3  -3 2049.30 96.4588  39
   8   3   4 830.621 63.3442  36
   8   3   4 855.680 67.7283  16
  -8  -3  -4 812.379 55.3749  45
  -8  -3  -4 793.245 56.9027  39
   8   3   5 446.808 42.0057  36
   8   3   5 421.390 41.4974  16
  -8  -3  -5 409.691 32.5906  46
  -8  -3  -5 439.141 38.1472  45
  -8  -3  -5 411.812 36.9180  39
   8   3   6 35.6322 14.6793  36
   8   3   6-3.96931 12.5624  16
  -8  -3  -6 8.78789 11.0582  45
  -8  -3  -6 22.2243 11.6403  39
  -8  -4  11 1142.50 57.7882  14
  -8  -4  10 197.098 28.1299  14
  -8  -4   9 671.296 55.9009  14
  -8  -4   8 340.508 38.5986  15
  -8  -4   8 330.787 43.9059  14
  -8  -4   7 5123.20 160.817  15
  -8  -4   7 5173.74 171.421  14
  -8  -4   6 8.21557 15.3681  15
  -8  -4   6 26.9161 21.8478  14
   8   4  -5 3135.99 134.214  16
  -8  -4   5 3196.55 130.528  15
  -8  -4   5 3124.24 134.355  14
   8   4  -4 1552.65 101.963  16
  -8  -4   4 1443.84 89.0031  15
  -8  -4   4 1488.50 92.4388  14
   8   4  -3 5999.31 206.610  16
  -8  -4   3 5823.43 179.592  15
  -8  -4   3 5344.43 175.730  14
   8   4  -2 52.6471 31.2289  16
  -8  -4   2 33.6086 17.8637  15
  -8  -4   2 9.40455 18.0384  14
  -8  -4   2 14.7580 14.6888  39
   8   4  -1 4236.59 255.943  49
   8   4  -1 3969.21 171.556  16
  -8  -4   1 3563.43 134.537  15
  -8  -4   1 3487.94 133.987  39
   8   4   0 1765.91 109.120  16
  -8  -4   0 1613.86 86.1832  15
  -8  -4   0 1561.31 88.3403  39
   8   4   1 6.56602 17.5452  36
   8   4   1 11.6060 28.7636  49
   8   4   1 20.8865 27.0590  16
  -8  -4  -1 5.57244 13.3906  45
  -8  -4  -1 3.82906 12.6344  15
  -8  -4  -1 1.64313 15.5925  39
   8   4   2 998.638 65.7946  36
   8   4   2 935.386 69.1414  49
   8   4   2 1059.41 78.7434  16
  -8  -4  -2 955.333 61.3964  45
  -8  -4  -2 989.525 65.6534  39
   8   4   3 439.741 42.3061  36
   8   4   3 422.614 41.2795  49
   8   4   3 461.154 47.9004  16
  -8  -4  -3 339.119 34.9798  45
  -8  -4  -3 389.663 38.7133  39
   8   4   4 150.325 25.2325  36
   8   4   4 143.492 25.4405  16
  -8  -4  -4 112.282 20.2538  45
  -8  -4  -4 164.031 24.8990  39
   8   4   5 46.5338 14.6626  16
  -8  -4  -5 57.8298 13.1463  45
  -8  -4  -5 75.4141 15.2005  39
  -8  -5  11 189.629 24.0666  14
  -8  -5  10 78.3098 18.2417  14
  -8  -5   9 64.9901 21.1681  14
  -8  -5   8 4962.40 142.176  15
  -8  -5   8 5073.18 156.967  14
  -8  -5   7 2646.74 100.345  17
  -8  -5   7 2831.10 111.295  15
  -8  -5   7 2700.24 115.668  14
  -8  -5   6 247.152 33.0834  17
  -8  -5   6 255.056 35.7193  15
  -8  -5   6 266.202 37.7438  14
  -8  -5   5 1861.03 94.9645  15
  -8  -5   5 1849.25 96.1485  14
   8   5  -4 1468.74 88.7991  16
  -8  -5   4 1479.09 84.2496  15
  -8  -5   4 1434.33 83.4090  14
   8   5  -3 206.200 38.0328  16
  -8  -5   3 222.813 35.6793  15
  -8  -5   3 197.881 29.6660  14
  -8  -5   3 189.101 29.1611  39
   8   5  -2 673.136 64.6687  16
  -8  -5   2 688.862 56.2699  15
  -8  -5   2 656.243 50.7917  14
  -8  -5   2 663.420 54.2220  39
   8   5  -1 1825.71 128.744  49
   8   5  -1 1631.06 97.1749  16
  -8  -5   1 1513.29 81.3117  15
  -8  -5   1 1537.79 82.6269  39
   8   5   0 83.3287 29.5202  49
   8   5   0 90.3908 26.1237  16
  -8  -5   0 123.619 24.8896  15
  -8  -5   0 110.039 24.9008  39
   8   5   1 3124.91 124.568  49
   8   5   1 3142.02 124.237  16
  -8  -5  -1 2915.85 102.971  45
  -8  -5  -1 3029.43 112.221  39
  -8  -5  -2 1225.03 59.2533  17
   8   5   2 1247.27 68.8440  49
   8   5   2 1216.20 72.7352  16
  -8  -5  -2 1147.97 61.3490  45
  -8  -5  -2 1157.11 64.7655  39
   8   5   3 501.416 43.2429  16
   8   5   3 472.118 36.7952  49
  -8  -5  -3 486.595 37.8205  45
  -8  -5  -3 522.254 40.3564  39
   8   5   4-13.6986 12.9796  16
  -8  -6  10 1026.13 55.1329  14
  -8  -6   9 2198.77 88.0623  14
  -8  -6   8 123.737 21.6533  15
  -8  -6   8 63.7679 15.2401  14
  -8  -6   7 374.239 35.7064  17
  -8  -6   7 347.163 36.6738  15
  -8  -6   7 400.548 40.9477  14
  -8  -6   6 3447.54 117.634  17
  -8  -6   6 3423.87 119.956  15
  -8  -6   6 3415.21 120.302  14
  -8  -6   5 1183.95 69.3942  17
  -8  -6   5 1281.19 73.8029  15
  -8  -6   5 1252.79 69.9200  14
  -8  -6   4 329.860 35.9842  17
  -8  -6   4 389.666 42.5505  15
  -8  -6   4 364.651 36.4886  14
  -8  -6   3 77.8794 18.7579  17
   8   6  -3 110.322 50.1159  49
   8   6  -3 164.804 31.2792  16
  -8  -6   3 129.565 26.1261  15
  -8  -6   2 1677.69 81.6257  17
   8   6  -2 1791.72 88.9856  16
  -8  -6   2 1738.09 82.6657  15
  -8  -6   1 117.564 23.0584  17
   8   6  -1 108.420 30.7330  49
   8   6  -1 162.227 30.6932  16
  -8  -6   1 137.637 26.5864  39
  -8  -6   0 1119.58 59.7959  17
   8   6   0 1229.09 69.9668  16
   8   6   0 1271.51 74.6846  49
  -8  -6   0 1119.66 56.2978  45
  -8  -6   0 1264.53 66.8925  39
  -8  -6  -1 1714.88 66.1659  17
   8   6   1 1892.57 82.0524  16
   8   6   1 1756.74 78.3782  49
  -8  -6  -1 1615.24 66.3120  45
  -8  -6  -2 447.332 32.9823  11
   8   6   2 471.330 38.2895  16
   8   6   2 447.157 35.1139  49
   8   6   2 473.383 35.8557  42
  -8  -7   9 10.2472 10.3513  14
   8   7  -8 1395.59 86.7615  49
  -8  -7   8 1616.40 67.0606  14
  -8  -7   7 166.675 23.1364  17
   8   7  -7 194.345 41.3613  49
  -8  -7   7 160.414 21.6805  14
  -8  -7   6 46.0377 15.0906  17
   8   7  -6 70.9447 34.8466  49
  -8  -7   6 35.9931 12.6333  14
  -8  -7   5 31.4316 11.7313  11
  -8  -7   5 29.8141 14.1710  17
   8   7  -5 56.8522 32.6901  49
  -8  -7   4 305.417 30.7815  11
  -8  -7   4 334.868 34.2931  17
  -8  -7   3 3406.31 106.925  11
  -8  -7   3 3443.26 110.072  17
  -8  -7   2 949.984 54.0473  11
  -8  -7   2 934.498 53.1793  17
   8   7  -2 1005.80 64.9187  49
  -8  -7   1 663.340 43.5442  11
  -8  -7   1 709.448 43.0707  17
   8   7  -1 704.955 49.4723  49
  -8  -7   0 78.6837 15.2057  11
   8   7   0 111.868 21.1294  49
   8   7   0 120.060 21.8277  42
  -8  -8   5 536.988 37.1854  17
  -8  -8   4 5047.32 118.331  17
  -9   7   0 2169.69 75.1371  20
   9  -7   0 2093.93 77.0043  36
  -9   7   0 2190.65 78.0171  43
   9  -7   0 2150.16 81.8818  40
   9  -7   0 2285.64 84.6940  21
  -9   7  -1 3175.28 95.3520  20
   9  -7   1 3077.75 94.8870  36
  -9   7  -1 3192.33 97.5547  43
   9  -7   1 2990.27 99.8243  40
   9  -7   1 3110.32 102.278  21
  -9   7  -2 25.8168 11.6296  20
  -9   7  -2 12.4490 11.0147  43
   9  -7   2 22.5370 13.2080  40
   9  -7   2 10.6284 11.4283  21
  -9   7  -3 47.6309 13.1600  20
  -9   7  -3 36.7796 12.1269  43
   9  -7   3 28.4205 13.9297  40
   9  -7   3 12.7968 13.2094  21
   9  -7   4 4.81911 11.1337  21
   9  -6  -3 1318.68 65.5390  36
  -9   6   3 1325.29 60.1682  15
   9  -6  -3 1339.61 65.4232  40
  -9   6   2 151.036 21.4530  20
   9  -6  -2 150.168 25.6199  36
  -9   6   2 170.677 25.4934  15
  -9   6   2 124.981 20.9836  43
   9  -6  -2 150.492 26.6538  40
   9  -6  -2 138.312 23.9872  21
  -9   6   1 10258.4 202.902  20
   9  -6  -1 10393.8 218.713  36
  -9   6   1 10336.8 201.495  15
  -9   6   1 10373.4 211.198  43
   9  -6  -1 10463.9 222.296  40
   9  -6  -1 10329.7 217.394  21
  -9   6   0 2917.04 100.839  20
   9  -6   0 2937.42 108.309  36
  -9   6   0 2793.39 93.1500  15
  -9   6   0 2857.90 102.953  43
   9  -6   0 2932.52 111.035  40
   9  -6   0 3016.06 112.029  21
  -9   6  -1 27.7130 12.9262  20
   9  -6   1 43.7092 19.6457  36
  -9   6  -1 34.6006 12.8298  15
  -9   6  -1 28.3444 17.3974  43
   9  -6   1 43.9504 20.4790  40
   9  -6   1 5.47045 16.5828  21
  -9   6  -2 309.934 32.6867  20
   9  -6   2 375.962 38.1171  36
  -9   6  -2 336.536 33.1897  43
   9  -6   2 340.810 38.6182  40
   9  -6   2 325.618 36.6079  21
  -9   6  -3 17.8452 12.2267  20
   9  -6   3 3.97787 15.8202  36
  -9   6  -3 32.7060 9.85082  48
  -9   6  -3 19.1643 10.7130  43
   9  -6   3 6.70030 13.4596  40
  -9   6  -3 22.8196 9.56113  39
   9  -6   3 6.71267 14.7745  21
  -9   6  -4 930.741 49.7290  20
   9  -6   4 888.061 52.0871  36
  -9   6  -4 818.651 45.5056  48
  -9   6  -4 823.631 45.2083  43
   9  -6   4 835.604 54.9986  40
   9  -6   4 845.811 56.9339  21
  -9   6  -4 902.775 46.0164  39
  -9   6  -5 274.731 25.7813  48
   9  -6   5 287.188 32.7257  40
   9  -6   5 319.884 34.0769  21
  -9   6  -5 289.742 25.9157  39
  -9   5   5 3712.74 101.676  15
   9  -5  -4 65.1608 21.0838  36
  -9   5   4 78.2353 18.3022  15
  -9   5   4 57.5722 15.3218  43
   9  -5  -4 94.3607 21.4239  40
   9  -5  -3 514.351 47.3326  36
  -9   5   3 494.810 40.9730  15
  -9   5   3 435.381 39.2179  43
   9  -5  -3 526.313 47.1054  40
   9  -5  -3 472.869 41.4797  21
  -9   5   3 440.376 35.2214  20
  -9   5   2 3389.21 111.636  20
   9  -5  -2 3494.92 126.401  36
  -9   5   2 3382.16 114.215  15
  -9   5   2 3350.55 117.709  43
   9  -5  -2 3508.09 126.198  40
   9  -5  -2 3337.86 118.022  21
  -9   5   1 668.437 50.5926  20
   9  -5  -1 782.102 60.6939  36
  -9   5   1 704.516 51.1435  15
  -9   5   1 677.431 53.1881  43
   9  -5  -1 705.060 58.1581  40
   9  -5  -1 636.616 53.5757  21
  -9   5   0 196.489 29.5279  20
   9  -5   0 204.763 33.7593  36
  -9   5   0 194.814 27.2044  15
  -9   5   0 211.177 31.2390  43
   9  -5   0 199.871 33.3229  40
   9  -5   0 167.944 30.5337  21
  -9   5  -1 2448.94 99.2078  20
   9  -5   1 2449.67 108.291  36
  -9   5  -1 2370.90 87.1127  48
  -9   5  -1 2286.17 86.6195  15
  -9   5  -1 2395.98 97.9201  43
   9  -5   1 2386.44 108.237  40
   9  -5   1 2381.86 106.160  21
  -9   5  -2 537.426 45.3687  20
   9  -5   2 513.525 48.7378  36
  -9   5  -2 513.725 41.6382  48
  -9   5  -2 526.153 44.0360  43
   9  -5   2 503.129 50.1901  40
   9  -5   2 482.301 47.5443  21
  -9   5  -3-7.63923 15.7772  20
   9  -5   3-5.75082 17.9820  36
  -9   5  -3-3.73841 12.9030  48
  -9   5  -3 17.9897 13.5128  43
   9  -5   3 3.88464 17.7287  40
  -9   5  -3-5.37834 9.60127  39
   9  -5   3-11.8447 20.7979  21
  -9   5  -4 7.69425 11.7411  20
   9  -5   4 0.38341 15.5968  36
  -9   5  -4 3.23543 10.4071  48
  -9   5  -4 17.3467 9.84605  43
   9  -5   4-2.72979 14.3703  40
  -9   5  -4 6.17614 9.31836  39
   9  -5   4 7.73633 14.7127  21
  -9   5  -5 21.1421 10.2597  20
   9  -5   5 27.0443 13.8334  36
  -9   5  -5 13.5480 10.1008  48
   9  -5   5 6.38558 14.0543  40
  -9   5  -5 24.6429 11.5790  39
   9  -5   5 8.27904 13.2925  21
  -9   5  -6 457.021 33.6539  48
   9  -5   6 445.056 38.4888  40
   9  -5   6 462.486 39.9167  21
  -9   5  -6 447.349 32.6715  39
  -9   4   6 7304.16 153.006  15
   9  -4  -5 59.8512 21.5176  36
  -9   4   5 22.0670 12.4095  15
  -9   4   5 37.0421 14.6445  43
   9  -4  -5 42.5252 18.7785  40
   9  -4  -4 256.416 36.2797  36
  -9   4   4 257.838 31.6172  15
  -9   4   4 246.823 31.2128  43
   9  -4  -4 315.608 39.1995  40
  -9   4   4 235.152 26.7980  20
  -9   4   3 980.750 60.2568  20
   9  -4  -3 1022.28 70.4535  36
  -9   4   3 983.621 62.9675  15
  -9   4   3 1030.63 65.6935  43
   9  -4  -3 1014.75 69.9475  40
  -9   4   2-3.67001 15.1555  20
   9  -4  -2-1.11207 19.9131  36
  -9   4   2 10.0485 13.2282  15
  -9   4   2 5.36725 14.7660  43
   9  -4  -2 32.5691 22.4308  40
   9  -4  -2 27.7449 19.9018  21
  -9   4   1 105.791 23.1602  20
   9  -4  -1 91.9910 28.4923  36
  -9   4   1 93.4237 22.8669  15
  -9   4   1 104.496 24.6542  43
   9  -4  -1 113.447 28.2997  40
   9  -4  -1 87.3111 24.9200  21
  -9   4   0 1334.43 76.9486  20
   9  -4   0 1395.19 88.2973  36
  -9   4   0 1223.92 67.2663  48
  -9   4   0 1301.30 71.4223  15
  -9   4   0 1300.93 75.9809  43
   9  -4   0 1342.54 84.3321  40
   9  -4   0 1228.92 77.4847  21
  -9   4  -1 31.8774 18.6874  20
   9  -4   1 20.5259 21.9072  36
  -9   4  -1-8.99428 15.8506  48
  -9   4  -1 40.0716 13.5003  15
  -9   4  -1 29.5165 17.1373  43
   9  -4   1 48.5648 22.0791  40
   9  -4   1 4.53812 15.9910  21
  -9   4  -2-10.4657 14.1585  20
   9  -4   2-25.5038 25.4872  36
  -9   4  -2 8.67510 14.7300  48
  -9   4  -2-5.02867 11.8258  43
   9  -4   2 6.98917 18.0910  40
  -9   4  -2-1.88465 10.4363  39
   9  -4   2 28.7248 19.6398  21
  -9   4  -3 497.985 43.7828  20
   9  -4   3 497.548 50.4573  36
  -9   4  -3 475.303 42.7708  48
  -9   4  -3 419.418 37.6391  43
   9  -4   3 508.022 50.9602  40
   9  -4   3 405.745 45.2520  21
  -9   4  -3 446.905 39.8196  39
  -9   4  -4-8.77244 12.8310  20
   9  -4   4 3.90916 16.9669  36
  -9   4  -4-7.29588 13.0298  48
   9  -4   4-3.53324 17.8882  40
  -9   4  -4 17.5625 11.7803  39
   9  -4   4-8.46393 19.8422  21
   9  -4   5 951.881 61.5788  36
  -9   4  -5 900.134 53.3400  48
  -9   4  -5 932.487 46.2138  45
   9  -4   5 955.142 62.6694  40
   9  -4   5 975.903 63.5692  21
  -9   4  -5 958.434 53.7483  39
   9  -4   6 93.6489 18.5830  36
  -9   4  -6 93.5228 17.7606  48
  -9   4  -6 90.2999 14.9279  45
   9  -4   6 92.5360 20.2630  40
  -9   4  -6 109.053 18.5293  39
   9  -4   6 105.800 22.0628  21
   9  -3  -6 747.167 57.0583  36
  -9   3   6 854.150 52.0218  15
  -9   3   6 768.987 49.6273  43
   9  -3  -5 1416.91 80.0233  36
  -9   3   5 1364.19 72.1705  15
  -9   3   5 1406.15 74.3986  43
   9  -3  -5 1341.58 73.6483  40
   9  -3  -4 1127.70 73.7349  36
  -9   3   4 1162.00 69.8521  15
  -9   3   4 1213.67 72.9680  43
   9  -3  -4 1095.42 69.9728  40
  -9   3   4 1115.52 63.6919  20
  -9   3   3 114.768 23.4432  20
   9  -3  -3 97.2362 26.3909  36
  -9   3   3 131.739 26.7715  15
  -9   3   3 137.660 27.7202  43
   9  -3  -3 93.4119 26.8782  40
  -9   3   2 1639.29 85.5392  20
   9  -3  -2 1626.32 94.7883  36
  -9   3   2 1570.61 83.9150  15
  -9   3   2 1702.82 91.2713  43
   9  -3  -2 1541.20 89.0254  40
  -9   3   1 1630.59 87.1994  20
   9  -3  -1 1577.16 96.5559  36
  -9   3   1 1435.98 77.3070  48
  -9   3   1 1568.96 83.2932  15
  -9   3   1 1597.46 87.1932  43
   9  -3  -1 1647.16 93.8569  40
   9  -3  -1 1422.18 80.5759  21
  -9   3   0 3873.78 137.839  20
   9  -3   0 3839.42 153.151  36
  -9   3   0 3646.72 129.060  48
  -9   3   0 3620.19 126.249  15
  -9   3   0 3739.06 133.510  43
   9  -3   0 3622.76 142.207  40
   9  -3   0 3550.16 134.029  21
  -9   3  -1 982.903 67.1373  20
   9  -3   1 878.717 73.7317  36
  -9   3  -1 801.102 59.8862  48
  -9   3  -1 830.441 56.2325  15
  -9   3  -1 824.155 59.4777  43
   9  -3   1 828.333 67.7459  40
   9  -3   1 803.026 64.0418  21
  -9   3  -1 825.221 53.3859  39
  -9   3  -2 2113.32 95.6670  20
   9  -3   2 2184.23 112.236  36
  -9   3  -2 2063.81 94.4632  48
  -9   3  -2 1996.13 88.6183  43
   9  -3   2 1994.69 101.952  40
   9  -3   2 1973.30 100.311  21
  -9   3  -2 1876.73 83.5835  39
   9  -3   3 842.102 67.3398  36
  -9   3  -3 916.271 61.1393  48
   9  -3   3 884.326 66.7817  16
   9  -3   3 887.481 67.3356  40
   9  -3   3 876.517 65.5234  21
  -9   3  -3 835.426 55.4924  39
  -9   3  -3 866.519 57.9862  20
   9  -3   4 2228.10 105.702  36
  -9   3  -4 2222.03 92.9755  48
   9  -3   4 2233.32 101.839  40
   9  -3   4 2179.94 100.840  21
  -9   3  -4 2243.35 90.5036  39
   9  -3   5 214.133 32.9762  36
  -9   3  -5 233.161 30.5140  48
  -9   3  -5 202.270 23.4333  45
   9  -3   5 230.605 32.7947  40
  -9   3  -5 224.143 28.3719  39
   9  -3   5 225.838 32.8495  21
   9  -3   6 567.929 45.5480  36
  -9   3  -6 579.003 40.1429  48
  -9   3  -6 579.947 36.7009  45
   9  -3   6 590.134 45.5942  40
   9  -3   6 643.872 48.7980  21
  -9   3  -6 650.126 42.5230  39
  -9   2   7 124.082 20.8674  15
  -9   2   7 175.501 25.4613  43
   9  -2  -6 258.530 33.6091  36
  -9   2   6 280.810 33.1808  15
  -9   2   6 282.934 35.1821  43
   9  -2  -5 4061.66 139.039  36
  -9   2   5 4271.47 137.170  15
  -9   2   5 4495.17 144.398  43
   9  -2  -4 192.361 34.6536  36
  -9   2   4 231.267 35.9170  15
  -9   2   4 221.760 36.9715  43
   9  -2  -3 9496.34 240.211  36
  -9   2   3 9751.81 231.338  15
  -9   2   3 10063.1 237.711  43
   9  -2  -3 9334.91 224.456  40
  -9   2   3 9639.41 226.216  20
  -9   2   2 87.9609 25.3263  20
   9  -2  -2 85.5164 28.7266  36
  -9   2   2 61.6873 21.3911  48
  -9   2   2 91.1336 24.8094  15
  -9   2   2 77.1316 24.1001  43
   9  -2  -2 58.7942 21.3187  40
   9  -2  -1 4163.82 160.401  36
  -9   2   1 3777.84 135.747  48
  -9   2   1 3965.61 137.667  15
  -9   2   1 4051.76 142.856  43
   9  -2  -1 3754.35 142.006  40
  -9   2   1 3960.73 141.290  20
   9  -2   0 4565.85 169.450  36
  -9   2   0 4333.58 146.707  48
  -9   2   0 4371.08 141.188  15
  -9   2   0 4329.81 145.936  43
   9  -2   0 4281.18 153.630  40
  -9   2   0 4438.43 149.740  20
   9  -2   1 1866.56 107.154  36
  -9   2  -1 1736.90 90.6712  48
  -9   2  -1 1715.34 81.6486  15
  -9   2  -1 1658.19 84.6263  43
   9  -2   1 1695.46 94.3209  40
   9  -2   1 1663.66 89.0447  21
  -9   2  -1 1731.02 81.5865  39
  -9   2  -1 1814.91 92.6512  20
  -9   2  -2 249.776 34.2929  20
   9  -2   2 274.000 43.5810  36
  -9   2  -2 222.560 32.4926  48
   9  -2   2 281.825 44.3976  16
   9  -2   2 221.119 34.4620  40
  -9   2  -2 233.968 31.8377  39
   9  -2   2 210.763 32.6189  21
   9  -2   3 1421.25 90.3364  36
  -9   2  -3 1407.50 76.7852  48
   9  -2   3 1418.68 89.9012  16
   9  -2   3 1292.79 78.5819  40
   9  -2   3 1331.67 78.9557  21
  -9   2  -3 1367.08 72.2655  39
   9  -2   4 42.0824 23.1363  36
  -9   2  -4 52.4159 19.0806  48
   9  -2   4 59.3050 24.0861  16
  -9   2  -4 39.5810 12.9228  45
   9  -2   4 38.5706 17.5307  40
  -9   2  -4 61.8789 18.8542  39
   9  -2   4 57.3939 21.8663  21
   9  -2   5 4980.55 152.991  36
  -9   2  -5 4857.67 131.968  48
  -9   2  -5 4694.18 119.873  45
   9  -2   5 4799.45 140.643  40
   9  -2   5 4939.56 144.039  21
  -9   2  -5 4931.36 133.724  39
   9  -2   6 171.126 28.1339  36
  -9   2  -6 187.480 24.0893  48
  -9   2  -6 176.861 21.8135  45
   9  -2   6 222.788 29.4752  21
   9  -2   6 180.311 26.2594  40
  -9   2  -6 218.395 26.0349  39
  -9   1   7 3372.41 107.992  15
  -9   1   7 3454.80 116.718  43
  -9   1   6 216.448 31.4162  15
  -9   1   6 235.203 33.8073  43
  -9   1   6 218.566 29.5022  14
   9  -1  -5 581.043 50.0728  36
  -9   1   5 670.401 54.0486  15
  -9   1   5 641.374 55.1274  43
  -9   1   5 672.994 53.5756  14
   9  -1  -4 1876.45 95.8329  36
  -9   1   4 2093.00 98.9581  15
  -9   1   4 2154.72 102.395  43
   9  -1  -3 509.888 51.7311  36
  -9   1   3 562.425 50.2030  48
  -9   1   3 556.033 53.3670  15
  -9   1   3 677.373 57.6368  43
   9  -1  -2 3660.20 145.437  36
  -9   1   2 3617.65 133.491  48
  -9   1   2 3668.31 134.993  15
  -9   1   2 3691.24 137.842  43
  -9   1   2 3617.07 137.063  20
   9  -1  -1 5317.85 180.761  36
  -9   1   1 5041.55 161.928  48
  -9   1   1 5203.38 160.803  15
  -9   1   1 5110.67 160.582  43
  -9   1   1 4992.39 162.572  20
   9  -1   0 41.8231 22.3988  36
  -9   1   0-3.26904 21.1259  48
  -9   1   0 0.67620 14.7452  15
  -9   1   0 33.7420 15.2994  43
   9  -1   0 8.22762 14.4639  40
  -9   1   0 15.7801 12.0556  39
  -9   1   0 26.2369 17.4871  20
   9  -1   1 443.315 53.8157  36
  -9   1  -1 473.664 47.5767  48
  -9   1  -1 457.935 41.7893  15
  -9   1  -1 420.126 40.3076  43
   9  -1   1 434.284 45.7391  40
  -9   1  -1 422.937 41.4672  39
   9  -1   2 145.596 32.9848  36
  -9   1  -2 189.801 30.9495  48
   9  -1   2 190.150 41.5326  16
   9  -1   2 138.582 27.4670  40
  -9   1  -2 157.035 26.2063  39
   9  -1   3 277.721 42.5729  36
  -9   1  -3 272.944 35.6879  48
   9  -1   3 322.669 45.2872  16
   9  -1   3 174.904 29.5074  40
  -9   1  -3 268.001 34.6648  39
   9  -1   3 274.359 34.7222  21
   9  -1   4 4173.77 143.583  36
   9  -1   4 3815.53 134.793  16
  -9   1  -4 3783.53 121.376  48
  -9   1  -4 3770.91 109.545  45
   9  -1   4 3579.88 120.660  40
   9  -1   4 4062.27 128.430  21
  -9   1  -4 3933.00 123.541  39
   9  -1   5 1556.08 82.5136  36
  -9   1  -5 1479.21 67.5850  48
  -9   1  -5 1581.10 65.9643  45
   9  -1   5 1542.70 71.4932  40
   9  -1   5 1641.86 75.2934  21
  -9   1  -5 1606.87 72.5992  39
   9  -1   6 308.059 34.0013  36
  -9   1  -6 319.801 27.6884  45
  -9   1  -6 279.821 28.0511  39
  -9   0   8 3951.06 107.235  15
  -9   0   7 1595.69 74.4647  15
  -9   0   7 1608.88 74.1013  14
  -9   0   6 1169.22 69.3844  15
  -9   0   6 1225.14 73.7227  43
  -9   0   6 1159.92 70.2523  14
  -9   0   5-5.69435 15.7362  15
  -9   0   5 1.55945 14.7771  14
   9   0  -4 459.309 45.2337  36
  -9   0   4 499.187 49.0052  15
  -9   0   4 523.481 50.7777  43
   9   0  -3 1143.60 74.5316  36
  -9   0   3 1116.53 73.0164  48
  -9   0   3 1165.92 74.9948  15
  -9   0   3 1125.87 73.7839  43
   9   0  -2 848.679 68.8643  36
  -9   0   2 841.074 64.2799  48
  -9   0   2 883.006 65.8081  15
  -9   0   2 821.249 62.6720  43
   9   0  -1 1178.20 81.5953  36
  -9   0   1 1130.41 74.1267  48
  -9   0   1 1230.26 74.5527  15
  -9   0   1 1135.11 71.0817  43
   9   0   0 174.808 34.1293  36
  -9   0   0 176.086 32.2152  48
  -9   0   0 154.175 26.9081  15
  -9   0   0 151.057 25.5858  43
  -9   0   0 135.555 23.8517  39
   9   0   1 98.1683 29.5469  36
  -9   0  -1 116.650 26.9905  48
   9   0   1 158.612 40.2679  16
  -9   0  -1 104.130 20.6103  15
  -9   0  -1 89.7146 21.2415  39
   9   0   2 859.112 69.3107  36
  -9   0  -2 857.221 60.8961  48
   9   0   2 893.962 78.0907  16
  -9   0  -2 813.406 57.2591  39
   9   0   3 1236.15 78.8309  36
   9   0   3 1201.05 81.9569  16
  -9   0  -3 1141.31 67.1048  48
  -9   0  -3 1082.98 56.7836  45
  -9   0  -3 1157.69 67.2868  39
   9   0   4 1302.73 75.6814  36
   9   0   4 1220.72 72.7688  16
  -9   0  -4 1162.49 61.0167  48
  -9   0  -4 1103.49 56.4146  45
  -9   0  -4 1216.54 65.5280  39
   9   0   5 233.993 31.6056  36
  -9   0  -5 216.237 23.7848  48
   9   0   5 206.927 27.9139  16
  -9   0  -5 214.576 24.2390  45
  -9   0  -5 201.220 25.0614  39
   9   0   6 316.488 31.9931  36
  -9  -1   8 299.988 28.4884  15
  -9  -1   8 341.873 33.3454  14
  -9  -1   7 41.7025 12.8886  15
  -9  -1   7 119.642 24.8352  14
  -9  -1   6 346.860 36.9011  15
  -9  -1   6 405.860 42.1647  14
  -9  -1   5 1566.81 82.9921  15
  -9  -1   5 1664.28 88.7831  43
  -9  -1   5 1626.27 87.7639  14
  -9  -1   4-0.82360 17.3372  15
  -9  -1   4 18.6956 14.6619  43
   9   1  -3 245.767 33.7888  36
  -9  -1   3 301.768 38.2248  48
  -9  -1   3 288.094 37.7853  15
  -9  -1   3 297.828 38.4614  43
   9   1  -2 3079.20 122.179  36
  -9  -1   2 3184.85 124.746  48
  -9  -1   2 3234.12 123.603  15
  -9  -1   2 3014.59 117.213  43
   9   1  -1 1568.58 90.4578  36
  -9  -1   1 1516.30 84.7674  48
   9   1  -1 1795.32 113.435  16
  -9  -1   1 1542.94 81.9962  15
  -9  -1   1 1461.28 76.4388  43
   9   1   0 16.2087 20.1723  36
  -9  -1   0 14.6750 16.3789  48
   9   1   0 24.7216 32.9476  16
  -9  -1   0 16.5403 12.6111  15
  -9  -1   0-3.38012 11.5014  39
   9   1   1 1613.19 91.4198  36
  -9  -1  -1 1435.62 78.5295  48
   9   1   1 1538.48 100.988  16
  -9  -1  -1 1448.10 70.1532  15
  -9  -1  -1 1450.93 75.7624  39
   9   1   2 279.711 40.0822  36
  -9  -1  -2 248.885 30.7449  48
   9   1   2 354.695 48.7381  16
  -9  -1  -2 237.455 30.9548  39
   9   1   3 222.190 33.3355  36
  -9  -1  -3 158.069 23.5685  48
   9   1   3 227.854 35.7474  16
  -9  -1  -3 186.922 23.2149  45
  -9  -1  -3 168.921 25.9802  39
   9   1   4 1699.48 82.1354  36
   9   1   4 1595.03 77.9657  16
  -9  -1  -4 1488.87 62.9969  48
  -9  -1  -4 1516.50 63.5179  45
  -9  -1  -4 1551.53 70.6920  39
   9   1   5 195.532 27.7531  36
  -9  -1  -5 177.436 21.6477  39
  -9  -2   8 30.3877 11.1099  15
  -9  -2   8 36.8273 16.3895  14
  -9  -2   7 1444.74 70.5641  15
  -9  -2   7 1575.68 79.0185  14
  -9  -2   6 2157.63 92.8524  15
  -9  -2   6 2215.88 98.7478  14
  -9  -2   5 665.391 54.0288  15
  -9  -2   5 671.864 55.9446  14
  -9  -2   4 120.755 24.8023  15
  -9  -2   4 75.4212 22.9972  14
   9   2  -3 4212.08 163.425  16
  -9  -2   3 3970.70 136.600  15
  -9  -2   2 1315.26 77.4492  48
  -9  -2   2 1334.48 76.9247  15
   9   2  -1 66.6175 22.8002  36
   9   2  -1 113.304 61.9358  49
  -9  -2   1 73.5843 23.7045  48
   9   2  -1 106.311 36.1705  16
  -9  -2   1 64.5712 19.3157  15
  -9  -2   1 38.8794 13.9441  39
   9   2   0 1009.03 66.1552  36
  -9  -2   0 1065.88 67.1618  48
   9   2   0 1213.03 89.7218  16
  -9  -2   0 1040.06 61.9913  15
  -9  -2   0 964.139 60.5997  39
   9   2   1 20.5523 17.0070  36
  -9  -2  -1-13.6057 19.0095  48
   9   2   1 18.7783 24.8289  16
  -9  -2  -1 17.1719 12.8313  15
  -9  -2  -1 12.6280 12.2578  39
   9   2   2-2.13009 17.2151  36
  -9  -2  -2 5.55586 14.6010  48
   9   2   2-9.62216 21.3360  16
  -9  -2  -2 6.68374 12.2271  39
   9   2   3 144.084 26.4142  36
  -9  -2  -3 127.030 18.3391  45
  -9  -2  -3 98.8731 18.4326  39
   9   2   4 1898.13 77.2218  36
   9   2   4 1726.32 73.9095  16
  -9  -2  -4 1740.98 69.1186  39
  -9  -3   8 60.0990 15.8314  15
  -9  -3   8 83.6097 20.1218  14
  -9  -3   7 6970.63 161.976  15
  -9  -3   7 6965.56 172.766  14
  -9  -3   6 558.010 46.3841  15
  -9  -3   6 538.535 49.4507  14
   9   3  -5 3358.45 121.043  16
  -9  -3   5 3687.42 124.403  15
  -9  -3   5 3567.10 125.243  14
   9   3  -4 798.037 64.7359  16
  -9  -3   4 912.963 61.1836  15
  -9  -3   4 865.760 60.7082  14
   9   3  -3 127.508 33.3839  16
  -9  -3   3 106.530 23.9721  15
  -9  -3   3 110.453 24.1757  14
   9   3  -2 322.364 45.6350  16
  -9  -3   2 280.239 34.0655  15
  -9  -3   2 246.082 32.2095  14
   9   3  -1 1039.62 92.8508  49
   9   3  -1 1051.98 78.9821  16
  -9  -3   1 836.070 55.3677  15
  -9  -3   1 866.368 56.6335  14
  -9  -3   1 847.387 53.1182  39
   9   3   0 1005.43 71.4814  49
   9   3   0 1140.39 78.3234  16
  -9  -3   0 996.967 55.9460  15
  -9  -3   0 957.503 54.5611  14
  -9  -3   0 961.607 57.4990  39
   9   3   1 1372.70 66.6060  36
   9   3   1 1573.64 86.8421  16
  -9  -3  -1 1373.64 67.6789  39
   9   3   2 6.68342 10.8093  36
   9   3   2 28.2564 21.4763  16
  -9  -3  -2-0.18261 10.5805  39
   9   3   3 1567.37 71.5581  16
  -9  -3  -3 1483.15 62.6391  39
  -9  -4   8 404.226 34.8736  14
  -9  -4   7 314.063 32.4364  15
  -9  -4   7 282.545 33.6463  14
  -9  -4   6 9523.01 198.345  15
  -9  -4   6 9601.59 203.788  14
  -9  -4   5 854.489 55.8979  15
  -9  -4   5 815.972 55.6204  14
   9   4  -4 311.534 36.1720  16
  -9  -4   4 396.353 39.4339  15
  -9  -4   4 342.017 36.3624  14
   9   4  -3 2081.33 95.4312  16
  -9  -4   3 2229.70 90.7962  15
  -9  -4   3 2120.06 85.8500  14
   9   4  -2 750.472 76.2147  49
   9   4  -2 648.128 54.6137  16
  -9  -4   2 626.023 46.1985  15
  -9  -4   2 592.006 43.4344  14
   9   4  -1 158.956 33.0007  49
   9   4  -1 150.030 29.4978  16
  -9  -4   1 158.630 23.9737  15
  -9  -4   1 132.883 20.9037  39
   9   4   0 1065.71 61.5968  49
   9   4   0 1181.01 69.3936  16
  -9  -4   0 1028.33 54.6471  39
   9   4   1 73.4529 20.4053  16
  -9  -4  -1 84.0848 16.8760  39
  -9  -5   7 2014.16 74.2160  14
  -9  -5   6 162.760 22.7947  15
  -9  -5   6 195.671 25.3712  14
  -9  -5   5 24.8005 12.0802  17
   9   5  -5 40.0142 42.7272  49
  -9  -5   5 14.5696 12.5704  15
  -9  -5   5 24.0457 14.0080  14
  -9  -5   4 832.394 48.9707  17
  -9  -5   4 930.667 53.5476  15
  -9  -5   4 819.418 46.6742  14
  -9  -5   3 738.992 46.4769  17
   9   5  -3 737.007 46.0951  16
  -9  -5   3 805.408 49.3738  15
  -9  -5   2 1337.19 62.3341  17
   9   5  -2 1317.99 63.6705  16
  -9  -5   1 514.433 36.4942  17
   9   5  -1 549.114 42.8123  49
   9   5  -1 538.230 40.6925  16
 -10   3   2 20.7810 9.60593  43
  10  -3  -1 2021.14 82.4399  36
  10  -3   0 151.540 25.2228  36
  10  -3   1 963.761 56.0579  36
 -10   2   3 16.6122 9.19614  15
 -10   2   3 23.9775 10.6639  43
  10  -2  -2 1839.67 77.6478  36
 -10   2   2 1686.28 66.2323  15
 -10   2   2 1683.75 68.3358  43
  10  -2  -1 123.801 24.0528  36
  10  -2  -1 134.258 28.8555  16
 -10   2   1 78.1309 14.8998  15
 -10   2   1 71.7813 16.4444  43
  10  -2   0 21.6793 14.7087  36
 -10   2   0 25.6033 10.8167  48
  10  -2   1 382.016 37.3017  36
 -10   2  -1 331.351 29.5765  48
 -10   1   4 606.123 39.2874  15
 -10   1   4 654.106 41.4246  43
 -10   1   3 1223.75 57.5562  15
 -10   1   3 1267.52 59.2502  43
 -10   1   3 1220.42 58.2142  14
 -10   1   2 1908.76 72.4206  15
 -10   1   2 1983.10 74.2697  43
  10  -1  -1 1878.72 79.0566  36
 -10   1   1 1841.74 71.7351  48
 -10   1   1 1888.17 68.7042  15
  10  -1   0 76.7940 20.5370  36
 -10   1   0 74.1739 16.1396  48
  10  -1   0 103.630 26.6030  16
  10  -1   1 940.781 56.0604  36
 -10   1  -1 836.534 47.1285  48
  10  -1   1 970.430 60.2237  16
  10   0  -4 1618.06 78.4168  16
 -10   0   4 1515.40 63.2811  15
 -10   0   4 1459.45 62.7043  14
  10   0  -3 241.267 34.7233  16
 -10   0   3 193.061 23.9074  15
 -10   0   3 165.980 22.0788  14
 -10   0   2 829.333 46.7198  15
 -10   0   2 802.415 48.5567  14
  10   0  -1 499.785 48.6153  16
 -10   0   0 1098.64 54.5843  48
  10   0   0 1381.71 76.1410  16
 -10   0  -1 22.2962 9.57106  48
 -10  -1   4 31.9810 11.5724  15
 -10  -1   4 19.9775 11.3831  14
  10   1  -3 2.91807 15.4999  16
 -10  -1   3 3.79431 8.84156  15
 -10  -1   3-13.3665 13.5301  14
  10   1  -2 123.769 26.1168  16
 -10  -1   2 120.936 18.4718  15
 -10  -1   2 97.8405 17.0343  14
  10   1  -1 1596.58 78.5654  16
 -10  -1   1 1443.51 61.8040  14
  10   1   0 96.2609 21.8469  16
   0   0   0    0.00    0.00   0
TITL cyc0914 in P-1
REM P-1 (#2 in standard setting)
CELL 1.54184   8.285327  11.532371  14.164072 111.2004  94.4487  93.4599
ZERR   18.00   0.000147   0.000194   0.000280   0.0017   0.0016   0.0014
LATT  1
SFAC C H N O S
UNIT 18.00 18.00 18.00 18.00 18.00
TREF
HKLF 4
END
;
_shelx_hkl_checksum              9881
_olex2_submission_special_instructions 'No special instructions were received'
loop_
_space_group_symop_operation_xyz
'x, y, z'
'-x, -y, -z'
loop_
_atom_site_label
_atom_site_type_symbol
_atom_site_fract_x
_atom_site_fract_y
_atom_site_fract_z
_atom_site_U_iso_or_equiv
_atom_site_adp_type
_atom_site_occupancy
_atom_site_site_symmetry_order
_atom_site_calc_flag
_atom_site_refinement_flags_posn
S22 S 0.15029(4) 0.31983(4) 0.35122(3) 0.05691(13) Uani 1 1 d .
O29 O 0.12717(15) 0.28429(13) 0.43611(11) 0.0755(4) Uani 1 1 d .
O32 O 0.84508(15) 0.09265(11) -0.04283(10) 0.0701(3) Uani 1 1 d .
O35 O 0.30512(13) 0.20301(9) 0.04341(9) 0.0598(3) Uani 1 1 d .
N1 N 0.37992(14) 0.41383(10) 0.09838(9) 0.0449(3) Uani 1 1 d .
O30 O 0.01123(15) 0.31009(15) 0.28205(13) 0.0853(4) Uani 1 1 d .
N21 N 0.29079(14) 0.23719(10) 0.28531(10) 0.0485(3) Uani 1 1 d .
O34 O 0.7432(2) 0.26109(14) -0.05342(11) 0.0914(5) Uani 1 1 d .
C20 C 0.41841(15) 0.30958(11) 0.29024(10) 0.0387(3) Uani 1 1 d .
C2 C 0.52441(17) 0.49232(12) 0.13702(9) 0.0425(3) Uani 1 1 d .
C14 C 0.61130(17) 0.05922(11) 0.26843(10) 0.0437(3) Uani 1 1 d .
C10 C 0.55065(16) 0.11297(11) 0.19073(10) 0.0424(3) Uani 1 1 d .
H10 H 0.4378 0.0787 0.1651 0.051 Uiso 1 1 calc R
C7 C 0.64780(16) 0.42466(11) 0.15704(10) 0.0406(3) Uani 1 1 d .
C28 C 0.41525(16) 0.44442(11) 0.35418(9) 0.0407(3) Uani 1 1 d .
C13 C 0.55825(15) 0.25764(10) 0.23223(9) 0.0378(3) Uani 1 1 d .
H13 H 0.6585 0.2903 0.2785 0.045 Uiso 1 1 calc R
C9 C 0.40436(16) 0.29299(12) 0.08389(10) 0.0432(3) Uani 1 1 d .
C8 C 0.57680(15) 0.29293(11) 0.13440(9) 0.0394(3) Uani 1 1 d .
C12 C 0.66629(16) 0.18460(11) 0.07284(10) 0.0427(3) Uani 1 1 d .
C23 C 0.26403(19) 0.46560(14) 0.38988(12) 0.0517(3) Uani 1 1 d .
C31 C 0.75298(18) 0.18601(13) -0.01404(11) 0.0486(3) Uani 1 1 d .
C27 C 0.53532(19) 0.54268(12) 0.38211(10) 0.0467(3) Uani 1 1 d .
H27 H 0.6386 0.5302 0.3610 0.056 Uiso 1 1 calc R
C11 C 0.64882(17) 0.08806(12) 0.10186(10) 0.0456(3) Uani 1 1 d .
H11 H 0.6926 0.0129 0.0706 0.055 Uiso 1 1 calc R
C6 C 0.80218(18) 0.48236(14) 0.19317(12) 0.0518(3) Uani 1 1 d .
H6 H 0.8858 0.4378 0.2057 0.062 Uiso 1 1 calc R
C3 C 0.5512(2) 0.61827(13) 0.15444(12) 0.0547(4) Uani 1 1 d .
H3 H 0.4680 0.6629 0.1415 0.066 Uiso 1 1 calc R
C15 C 0.77442(19) 0.07205(13) 0.30189(11) 0.0517(3) Uani 1 1 d .
H15 H 0.8482 0.1140 0.2763 0.062 Uiso 1 1 calc R
C25 C 0.3450(3) 0.68068(15) 0.47379(14) 0.0720(5) Uani 1 1 d .
H25 H 0.3223 0.7612 0.5122 0.086 Uiso 1 1 calc R
C19 C 0.5039(2) -0.00490(14) 0.30702(14) 0.0598(4) Uani 1 1 d .
H19 H 0.3934 -0.0150 0.2851 0.072 Uiso 1 1 calc R
C36 C 0.2251(2) 0.45341(16) 0.07200(14) 0.0612(4) Uani 1 1 d .
H36A H 0.1904 0.5141 0.1317 0.092 Uiso 1 1 calc GR
H36B H 0.1453 0.3824 0.0453 0.092 Uiso 1 1 calc GR
H36C H 0.2373 0.4898 0.0215 0.092 Uiso 1 1 calc GR
C26 C 0.4977(2) 0.66089(13) 0.44264(12) 0.0600(4) Uani 1 1 d .
H26 H 0.5774 0.7279 0.4625 0.072 Uiso 1 1 calc R
C4 C 0.7073(2) 0.67525(14) 0.19205(13) 0.0630(4) Uani 1 1 d .
H4 H 0.7289 0.7600 0.2050 0.076 Uiso 1 1 calc R
C16 C 0.8301(2) 0.02313(16) 0.37344(13) 0.0646(4) Uani 1 1 d .
H16 H 0.9404 0.0329 0.3958 0.077 Uiso 1 1 calc R
C5 C 0.8306(2) 0.60939(15) 0.21058(14) 0.0626(4) Uani 1 1 d .
H5 H 0.9343 0.6499 0.2350 0.075 Uiso 1 1 calc R
C24 C 0.2248(2) 0.58264(17) 0.44879(14) 0.0700(5) Uani 1 1 d .
H24 H 0.1220 0.5951 0.4707 0.084 Uiso 1 1 calc R
C18 C 0.5602(3) -0.05398(17) 0.37794(16) 0.0744(5) Uani 1 1 d .
H18 H 0.4872 -0.0970 0.4032 0.089 Uiso 1 1 calc R
C17 C 0.7219(3) -0.03982(17) 0.41115(14) 0.0724(5) Uani 1 1 d .
H17 H 0.7588 -0.0726 0.4591 0.087 Uiso 1 1 calc R
C33 C 0.9435(2) 0.0828(2) -0.12367(15) 0.0787(6) Uani 1 1 d .
H33A H 0.8828 0.1023 -0.1757 0.118 Uiso 1 1 calc GR
H33B H 0.9743 -0.0008 -0.1520 0.118 Uiso 1 1 calc GR
H33C H 1.0393 0.1404 -0.0975 0.118 Uiso 1 1 calc GR
loop_
_atom_site_aniso_label
_atom_site_aniso_U_11
_atom_site_aniso_U_22
_atom_site_aniso_U_33
_atom_site_aniso_U_23
_atom_site_aniso_U_13
_atom_site_aniso_U_12
S22 0.04096(19) 0.0591(2) 0.0806(3) 0.0333(2) 0.02152(17) 0.01310(15)
O29 0.0653(7) 0.0845(9) 0.0966(9) 0.0500(8) 0.0393(7) 0.0138(6)
O32 0.0744(8) 0.0648(7) 0.0800(8) 0.0257(6) 0.0426(6) 0.0358(6)
O35 0.0553(6) 0.0429(5) 0.0682(7) 0.0074(5) -0.0039(5) 0.0040(4)
N1 0.0469(6) 0.0403(6) 0.0492(6) 0.0154(5) 0.0112(5) 0.0155(5)
O30 0.0442(6) 0.0975(10) 0.1276(12) 0.0578(9) 0.0041(7) 0.0098(6)
N21 0.0436(6) 0.0403(6) 0.0620(7) 0.0175(5) 0.0127(5) 0.0049(5)
O34 0.1319(13) 0.0944(10) 0.0822(9) 0.0557(8) 0.0586(9) 0.0643(9)
C20 0.0409(6) 0.0315(6) 0.0443(6) 0.0130(5) 0.0098(5) 0.0076(5)
C2 0.0525(7) 0.0369(6) 0.0411(6) 0.0141(5) 0.0178(5) 0.0139(5)
C14 0.0529(7) 0.0264(5) 0.0501(7) 0.0093(5) 0.0135(6) 0.0100(5)
C10 0.0468(7) 0.0269(5) 0.0504(7) 0.0088(5) 0.0097(5) 0.0082(5)
C7 0.0470(7) 0.0342(6) 0.0424(6) 0.0130(5) 0.0164(5) 0.0100(5)
C28 0.0494(7) 0.0332(6) 0.0424(6) 0.0134(5) 0.0163(5) 0.0131(5)
C13 0.0397(6) 0.0276(5) 0.0445(6) 0.0095(5) 0.0103(5) 0.0082(4)
C9 0.0470(7) 0.0376(6) 0.0423(6) 0.0095(5) 0.0095(5) 0.0114(5)
C8 0.0423(6) 0.0314(6) 0.0432(6) 0.0096(5) 0.0112(5) 0.0107(5)
C12 0.0454(7) 0.0354(6) 0.0438(6) 0.0079(5) 0.0098(5) 0.0140(5)
C23 0.0554(8) 0.0472(7) 0.0604(8) 0.0234(6) 0.0249(7) 0.0202(6)
C31 0.0510(7) 0.0460(7) 0.0464(7) 0.0109(6) 0.0119(6) 0.0164(6)
C27 0.0625(8) 0.0347(6) 0.0425(7) 0.0116(5) 0.0153(6) 0.0061(6)
C11 0.0520(7) 0.0321(6) 0.0468(7) 0.0052(5) 0.0085(6) 0.0146(5)
C6 0.0484(7) 0.0486(7) 0.0587(8) 0.0185(6) 0.0130(6) 0.0059(6)
C3 0.0719(10) 0.0387(7) 0.0604(8) 0.0217(6) 0.0221(7) 0.0174(7)
C15 0.0552(8) 0.0435(7) 0.0566(8) 0.0164(6) 0.0131(6) 0.0104(6)
C25 0.1145(15) 0.0415(8) 0.0628(10) 0.0135(7) 0.0353(10) 0.0323(9)
C19 0.0613(9) 0.0477(8) 0.0767(10) 0.0285(7) 0.0165(8) 0.0053(7)
C36 0.0538(8) 0.0625(9) 0.0721(10) 0.0260(8) 0.0123(7) 0.0260(7)
C26 0.0958(12) 0.0337(7) 0.0489(8) 0.0111(6) 0.0169(8) 0.0077(7)
C4 0.0817(11) 0.0365(7) 0.0715(10) 0.0182(7) 0.0235(8) 0.0025(7)
C16 0.0691(10) 0.0589(9) 0.0642(9) 0.0198(8) 0.0033(8) 0.0187(8)
C5 0.0615(9) 0.0508(8) 0.0715(10) 0.0183(7) 0.0141(8) -0.0070(7)
C24 0.0836(12) 0.0608(10) 0.0774(11) 0.0274(8) 0.0437(9) 0.0403(9)
C18 0.0920(14) 0.0615(10) 0.0864(12) 0.0436(10) 0.0260(10) 0.0079(9)
C17 0.1036(15) 0.0574(9) 0.0654(10) 0.0310(8) 0.0119(10) 0.0205(9)
C33 0.0634(10) 0.0942(14) 0.0692(11) 0.0115(10) 0.0326(9) 0.0237(10)
loop_
_atom_type_symbol
_atom_type_description
_atom_type_scat_dispersion_real
_atom_type_scat_dispersion_imag
_atom_type_scat_source
C C 0.0181 0.0091 'International Tables Vol C Tables 4.2.6.8 and 6.1.1.4'
H H 0.0000 0.0000 'International Tables Vol C Tables 4.2.6.8 and 6.1.1.4'
N N 0.0311 0.0180 'International Tables Vol C Tables 4.2.6.8 and 6.1.1.4'
O O 0.0492 0.0322 'International Tables Vol C Tables 4.2.6.8 and 6.1.1.4'
S S 0.3331 0.5567 'International Tables Vol C Tables 4.2.6.8 and 6.1.1.4'
loop_
_geom_angle_atom_site_label_1
_geom_angle_atom_site_label_2
_geom_angle_atom_site_label_3
_geom_angle
O29 S22 N21 109.19(7)
O29 S22 C23 111.04(8)
O30 S22 O29 117.71(8)
O30 S22 N21 108.32(8)
O30 S22 C23 112.33(8)
N21 S22 C23 95.97(6)
C31 O32 C33 118.49(15)
C2 N1 C36 125.04(12)
C9 N1 C2 111.13(11)
C9 N1 C36 123.77(13)
C20 N21 S22 110.34(9)
N21 C20 C28 116.19(11)
N21 C20 C13 120.18(11)
C28 C20 C13 123.62(11)
C7 C2 N1 109.91(11)
C3 C2 N1 128.18(13)
C3 C2 C7 121.91(14)
C15 C14 C10 120.80(13)
C15 C14 C19 118.48(14)
C19 C14 C10 120.72(13)
C14 C10 C13 114.24(10)
C11 C10 C14 114.63(11)
C11 C10 C13 101.38(10)
C2 C7 C8 108.39(11)
C6 C7 C2 120.04(12)
C6 C7 C8 131.55(12)
C23 C28 C20 110.11(12)
C27 C28 C20 130.52(12)
C27 C28 C23 119.36(12)
C20 C13 C10 114.08(10)
C20 C13 C8 114.83(10)
C10 C13 C8 104.19(9)
O35 C9 N1 125.89(13)
O35 C9 C8 126.47(12)
N1 C9 C8 107.53(11)
C7 C8 C13 114.86(10)
C7 C8 C9 101.80(10)
C7 C8 C12 119.39(11)
C9 C8 C13 108.13(10)
C12 C8 C13 99.52(9)
C12 C8 C9 113.18(10)
C31 C12 C8 122.66(11)
C11 C12 C8 112.44(12)
C11 C12 C31 124.77(12)
C28 C23 S22 107.17(10)
C24 C23 S22 129.93(13)
C24 C23 C28 122.82(16)
O32 C31 C12 110.98(12)
O34 C31 O32 123.71(14)
O34 C31 C12 125.31(13)
C28 C27 C26 118.25(14)
C12 C11 C10 112.73(11)
C7 C6 C5 118.48(14)
C2 C3 C4 117.22(14)
C14 C15 C16 120.83(15)
C26 C25 C24 121.03(14)
C18 C19 C14 120.41(17)
C25 C26 C27 121.40(16)
C5 C4 C3 121.53(14)
C17 C16 C15 119.95(17)
C4 C5 C6 120.81(15)
C23 C24 C25 117.06(16)
C17 C18 C19 120.60(17)
C18 C17 C16 119.73(17)
loop_
_geom_bond_atom_site_label_1
_geom_bond_atom_site_label_2
_geom_bond_distance
S22 O29 1.4258(13)
S22 O30 1.4247(14)
S22 N21 1.6715(12)
S22 C23 1.7541(16)
O32 C31 1.3182(17)
O32 C33 1.432(2)
O35 C9 1.2145(17)
N1 C2 1.4004(18)
N1 C9 1.3633(17)
N1 C36 1.4537(18)
N21 C20 1.2884(17)
O34 C31 1.1909(19)
C20 C28 1.4929(16)
C20 C13 1.5006(16)
C2 C7 1.3949(18)
C2 C3 1.3832(19)
C14 C10 1.5144(19)
C14 C15 1.378(2)
C14 C19 1.388(2)
C10 C13 1.5509(15)
C10 C11 1.5013(19)
C7 C8 1.5058(17)
C7 C6 1.375(2)
C28 C23 1.3896(19)
C28 C27 1.3817(19)
C13 C8 1.5946(18)
C9 C8 1.5476(18)
C8 C12 1.5150(16)
C12 C31 1.4768(19)
C12 C11 1.3229(19)
C23 C24 1.380(2)
C27 C26 1.3921(19)
C6 C5 1.397(2)
C3 C4 1.388(2)
C15 C16 1.389(2)
C25 C26 1.377(3)
C25 C24 1.384(3)
C19 C18 1.385(3)
C4 C5 1.373(3)
C16 C17 1.375(3)
C18 C17 1.365(3)
