#------------------------------------------------------------------------------
#$Date: 2017-06-05 03:00:10 +0300 (Mon, 05 Jun 2017) $
#$Revision: 197369 $
#$URL: file:///home/coder/svn-repositories/cod/cif/1/54/62/1546224.cif $
#------------------------------------------------------------------------------
#
# This file is available in the Crystallography Open Database (COD),
# http://www.crystallography.net/
#
# All data on this site have been placed in the public domain by the
# contributors.
#
data_1546224
loop_
_publ_author_name
'Najib, Atifah'
'Hirano, Koji'
'Miura, Masahiro'
_publ_section_title
;
 Palladium-Catalyzed Asymmetric Benzylic Substitution of Secondary Benzyl
 Carbonates with Nitrogen and Oxygen Nucleophiles.
;
_journal_issue                   9
_journal_name_full               'Organic letters'
_journal_page_first              2438
_journal_page_last               2441
_journal_paper_doi               10.1021/acs.orglett.7b01022
_journal_volume                  19
_journal_year                    2017
_chemical_absolute_configuration ad
_chemical_formula_moiety         'C25 H23 N O2 S'
_chemical_formula_sum            'C25 H23 N O2 S'
_chemical_formula_weight         401.52
_space_group_crystal_system      monoclinic
_space_group_IT_number           4
_space_group_name_Hall           'P 2yb'
_space_group_name_H-M_alt        'P 1 21 1'
_symmetry_space_group_name_Hall  'P 2yb'
_symmetry_space_group_name_H-M   'P 1 21 1'
_atom_sites_solution_hydrogens   geom
_atom_sites_solution_primary     direct
_atom_sites_solution_secondary   difmap
_cell_angle_alpha                90.0000
_cell_angle_beta                 112.480(6)
_cell_angle_gamma                90.0000
_cell_formula_units_Z            2
_cell_length_a                   9.717(8)
_cell_length_b                   11.448(8)
_cell_length_c                   10.196(8)
_cell_measurement_reflns_used    3233
_cell_measurement_temperature    173
_cell_measurement_theta_max      27.50
_cell_measurement_theta_min      3.00
_cell_volume                     1048.0(14)
_computing_cell_refinement       'CrystalClear-SM Expert 2.0 r15'
_computing_data_collection
'CrystalClear-SM Expert 2.0 r15 (Rigaku, 2011)'
_computing_data_reduction        'CrystalClear-SM Expert 2.0 r15'
_computing_molecular_graphics    'CrystalStructure 4.2.1'
_computing_publication_material  'CrystalStructure 4.2.1 (Rigaku, 2016)'
_computing_structure_refinement  'SHELXL Version 2014/7 (Sheldrick, 2008)'
_computing_structure_solution    'SHELXS (Sheldrick, 2008)'
_diffrn_ambient_temperature      173
_diffrn_detector_area_resol_mean 13.653
_diffrn_measured_fraction_theta_full 0.997
_diffrn_measured_fraction_theta_max 0.996
_diffrn_measurement_device_type  'Rigaku XtaLAB mini'
_diffrn_measurement_method       \w
_diffrn_radiation_type           'Mo K\a'
_diffrn_radiation_wavelength     0.71075
_diffrn_reflns_av_R_equivalents  0.0224
_diffrn_reflns_Laue_measured_fraction_full 0.997
_diffrn_reflns_Laue_measured_fraction_max 0.996
_diffrn_reflns_limit_h_max       12
_diffrn_reflns_limit_h_min       -12
_diffrn_reflns_limit_k_max       14
_diffrn_reflns_limit_k_min       -14
_diffrn_reflns_limit_l_max       13
_diffrn_reflns_limit_l_min       -13
_diffrn_reflns_number            11122
_diffrn_reflns_point_group_measured_fraction_full 0.997
_diffrn_reflns_point_group_measured_fraction_max 0.992
_diffrn_reflns_theta_full        25.242
_diffrn_reflns_theta_max         27.487
_diffrn_reflns_theta_min         3.039
_diffrn_standards_number         0
_exptl_absorpt_coefficient_mu    0.175
_exptl_absorpt_correction_T_max  0.964
_exptl_absorpt_correction_T_min  0.896
_exptl_absorpt_correction_type   numerical
_exptl_absorpt_process_details   'NUMABS (Rigaku, 1999)'
_exptl_crystal_colour            colorless
_exptl_crystal_density_diffrn    1.272
_exptl_crystal_density_method    'not measured'
_exptl_crystal_description       prism
_exptl_crystal_F_000             424.00
_exptl_crystal_size_max          0.640
_exptl_crystal_size_mid          0.240
_exptl_crystal_size_min          0.210
_refine_diff_density_max         0.15
_refine_diff_density_min         -0.29
_refine_ls_abs_structure_details
;
 Flack x determined using 1970 quotients [(I+)-(I-)]/[(I+)+(I-)]
 (Parsons, Flack and Wagner, Acta Cryst. B69 (2013) 249-259).
;
_refine_ls_abs_structure_Flack   0.05(2)
_refine_ls_extinction_method     none
_refine_ls_goodness_of_fit_ref   1.041
_refine_ls_hydrogen_treatment    constr
_refine_ls_number_parameters     264
_refine_ls_number_reflns         4773
_refine_ls_number_restraints     1
_refine_ls_R_factor_all          0.0378
_refine_ls_R_factor_gt           0.0351
_refine_ls_shift/su_max          0.004
_refine_ls_structure_factor_coef Fsqd
_refine_ls_weighting_details
'w = 1/[\s^2^(Fo^2^)+(0.0471P)^2^+0.0900P] where P=(Fo^2^+2Fc^2^)/3'
_refine_ls_weighting_scheme      calc
_refine_ls_wR_factor_gt          0.0855
_refine_ls_wR_factor_ref         0.0877
_reflns_Friedel_coverage         0.897
_reflns_Friedel_fraction_full    0.996
_reflns_Friedel_fraction_max     0.988
_reflns_number_gt                4543
_reflns_number_total             4773
_reflns_threshold_expression     F^2^>2.0\s(F^2^)
_cod_data_source_file            ol7b01022_si_002.cif
_cod_data_source_block           319-2
_cod_database_code               1546224
_shelx_res_file
;

    shelxl.res created by SHELXL-2014/7

TITL 319-2
CELL  0.71075 9.71700 11.44800 10.19600 90.00000 112.48000 90.00000
ZERR  2 0.00800 0.00800 0.00800 0.00000 0.00600 0.00000
LATT -1
SYMM    -X, .50+Y,    -Z
SFAC C H N O S
UNIT 50 46 2 4 2
L.S. 10
FMAP 2
PLAN 25
WPDB -2
HTAB
BOND $H
CONF
LIST 4
TEMP -100.0
ACTA
SIZE 0.240 0.640 0.210
WGHT    0.047100    0.090000
FVAR       3.03026
S1    5    0.667787    0.330257    0.235323    11.00000    0.03119    0.03998 =
         0.02351    0.00231    0.01163    0.00775
O4    4    0.754382    0.404727    0.181849    11.00000    0.03265    0.06535 =
         0.03261   -0.00047    0.01623   -0.00509
O6    4    0.733258    0.225740    0.311947    11.00000    0.05369    0.04949 =
         0.03347    0.00766    0.01703    0.02591
N11   3    0.617778    0.410096    0.342241    11.00000    0.03449    0.02916 =
         0.02178    0.00200    0.01142    0.00283
C2    1    0.902523    0.424954    0.881548    11.00000    0.02790    0.04211 =
         0.02310    0.00122    0.00883    0.00497
C3    1    0.924799    0.475826    0.763614    11.00000    0.02481    0.02990 =
         0.02807    0.00078    0.01034    0.00533
C5    1    0.581810    0.352605    0.456337    11.00000    0.03115    0.02737 =
         0.02232   -0.00046    0.01097   -0.00082
AFIX  13
H5    2    0.590072    0.266529    0.444320    11.00000   -1.20000
AFIX   0
C7    1    0.819330    0.452344    0.624889    11.00000    0.02844    0.02943 =
         0.02306    0.00411    0.01203    0.00265
AFIX  43
H7    2    0.833976    0.484998    0.545545    11.00000   -1.20000
AFIX   0
C8    1    0.505433    0.289773    0.089624    11.00000    0.03822    0.03066 =
         0.02494   -0.00259    0.01544    0.00272
C9    1    0.696537    0.383512    0.602571    11.00000    0.02767    0.02921 =
         0.02369    0.00218    0.01077    0.00251
C10   1    0.422047    0.375628    0.444015    11.00000    0.02884    0.03025 =
         0.02180   -0.00094    0.00762   -0.00112
C12   1    0.326269    0.326336   -0.145120    11.00000    0.04030    0.03891 =
         0.03334    0.00111    0.00602    0.00609
AFIX  43
H12   2    0.293369    0.372026   -0.229290    11.00000   -1.20000
AFIX   0
C13   1    0.165648    0.312654    0.369442    11.00000    0.03071    0.05049 =
         0.04028   -0.00452    0.00530   -0.01154
AFIX  43
H13   2    0.091288    0.255364    0.326350    11.00000   -1.20000
AFIX   0
C14   1    1.052311    0.547124    0.789650    11.00000    0.02810    0.03651 =
         0.03550   -0.00030    0.01048    0.00010
AFIX  43
H14   2    1.069542    0.580288    0.711878    11.00000   -1.20000
AFIX   0
C15   1    0.243007    0.229896   -0.137553    11.00000    0.03754    0.03717 =
         0.04062   -0.01326    0.01170    0.00312
C16   1    1.006403    0.449476    1.020554    11.00000    0.03308    0.06975 =
         0.02505   -0.00057    0.00900    0.00404
AFIX  43
H16   2    0.992484    0.416355    1.100028    11.00000   -1.20000
AFIX   0
C17   1    0.456688    0.357963   -0.032745    11.00000    0.03695    0.03384 =
         0.03171    0.00351    0.01123    0.00150
AFIX  43
H17   2    0.511429    0.424888   -0.039466    11.00000   -1.20000
AFIX   0
C18   1    0.310939    0.293426    0.380224    11.00000    0.03718    0.03359 =
         0.03310   -0.00435    0.01093   -0.00524
AFIX  43
H18   2    0.334623    0.223311    0.343589    11.00000   -1.20000
AFIX   0
C19   1    1.150583    0.568672    0.925111    11.00000    0.03028    0.05205 =
         0.04471   -0.00767    0.01076   -0.00475
AFIX  43
H19   2    1.235370    0.616413    0.940733    11.00000   -1.20000
AFIX   0
C20   1    0.775476    0.353010    0.856053    11.00000    0.03529    0.05227 =
         0.02522    0.00742    0.01410   -0.00277
AFIX  43
H20   2    0.760004    0.318345    0.933966    11.00000   -1.20000
AFIX   0
C21   1    0.237096    0.497143    0.484671    11.00000    0.03571    0.04865 =
         0.04110   -0.00773    0.01396    0.00674
AFIX  43
H21   2    0.211939    0.567339    0.519986    11.00000   -1.20000
AFIX   0
C22   1    0.565103    0.529133    0.297502    11.00000    0.03890    0.03092 =
         0.03468    0.00437    0.01508    0.00262
AFIX 137
H22A  2    0.597753    0.580804    0.380434    11.00000   -1.20000
H22B  2    0.456086    0.529353    0.253081    11.00000   -1.20000
H22C  2    0.606254    0.556828    0.229081    11.00000   -1.20000
AFIX   0
C23   1    0.675942    0.333161    0.721872    11.00000    0.03248    0.04335 =
         0.02878    0.00524    0.01256   -0.00606
AFIX  43
H23   2    0.591591    0.285171    0.707278    11.00000   -1.20000
AFIX   0
C24   1    0.426065    0.190994    0.098585    11.00000    0.06233    0.03358 =
         0.02944   -0.00162    0.02067   -0.00562
AFIX  43
H24   2    0.460926    0.143428    0.181193    11.00000   -1.20000
AFIX   0
C25   1    0.383561    0.477729    0.497276    11.00000    0.03206    0.03559 =
         0.03673   -0.01033    0.01193   -0.00367
AFIX  43
H25   2    0.457880    0.534531    0.542546    11.00000   -1.20000
AFIX   0
C26   1    1.126349    0.520242    1.041472    11.00000    0.03295    0.07438 =
         0.03303   -0.01045    0.00315    0.00260
AFIX  43
H26   2    1.193927    0.536887    1.135312    11.00000   -1.20000
AFIX   0
C27   1    0.295342    0.162683   -0.014527    11.00000    0.05715    0.03655 =
         0.04234   -0.01104    0.02332   -0.01433
AFIX  43
H27   2    0.240387    0.095904   -0.007764    11.00000   -1.20000
AFIX   0
C28   1    0.101428    0.196811   -0.259991    11.00000    0.04273    0.05180 =
         0.06121   -0.01699    0.00535    0.00055
AFIX 137
H28A  2    0.017721    0.198650   -0.228846    11.00000   -1.20000
H28B  2    0.111583    0.117946   -0.292586    11.00000   -1.20000
H28C  2    0.083117    0.252371   -0.337985    11.00000   -1.20000
AFIX   0
C29   1    0.128908    0.414198    0.420828    11.00000    0.02780    0.06038 =
         0.03851    0.00498    0.00996    0.00179
AFIX  43
H29   2    0.029300    0.427172    0.412373    11.00000   -1.20000
AFIX   0
HKLF 4

REM  319-2
REM R1 =  0.0351 for    4543 Fo > 4sig(Fo)  and  0.0378 for all    4773 data
REM    264 parameters refined using      1 restraints

END

WGHT      0.0446      0.0690

REM Instructions for potential hydrogen bonds
HTAB C5 O6
HTAB C22 O4

REM Highest difference peak  0.150,  deepest hole -0.289,  1-sigma level  0.040
Q1    1   0.0209  0.2477 -0.2977  11.00000  0.05    0.15
Q2    1   0.6747  0.1807  0.3018  11.00000  0.05    0.15
Q3    1   0.2258  0.0811  0.1465  11.00000  0.05    0.13
Q4    1  -0.0828  0.2235 -0.2052  11.00000  0.05    0.12
Q5    1   0.5753  0.3083  0.1628  11.00000  0.05    0.12
Q6    1   0.0860  0.0941 -0.2260  11.00000  0.05    0.12
Q7    1   0.3643  0.0586  0.1941  11.00000  0.05    0.12
Q8    1   0.3471  0.5192  0.2784  11.00000  0.05    0.12
Q9    1   0.5778  0.0647  0.2438  11.00000  0.05    0.11
Q10   1   0.3184  0.0598  0.1408  11.00000  0.05    0.11
Q11   1   0.1987  0.0356 -0.1795  11.00000  0.05    0.11
Q12   1   0.0891  0.2320  0.3903  11.00000  0.05    0.11
Q13   1   0.2342  0.2128 -0.0737  11.00000  0.05    0.11
Q14   1   0.5820  0.1923  0.5581  11.00000  0.05    0.11
Q15   1   0.0972  0.1725  0.1836  11.00000  0.05    0.11
Q16   1   0.4368  0.5799  0.4843  11.00000  0.05    0.11
Q17   1   0.7419  0.6619  0.5176  11.00000  0.05    0.11
Q18   1   0.5056  0.6051  0.5957  11.00000  0.05    0.11
Q19   1   0.3853  0.1731  0.0335  11.00000  0.05    0.11
Q20   1   0.6312  0.5351  0.7029  11.00000  0.05    0.11
Q21   1   0.1175  0.1623 -0.3506  11.00000  0.05    0.10
Q22   1   0.3783  0.1123  0.3766  11.00000  0.05    0.10
Q23   1   0.6423  0.3802  0.5367  11.00000  0.05    0.10
Q24   1  -0.0124  0.1817 -0.0635  11.00000  0.05    0.10
Q25   1   0.5381  0.6300  0.0803  11.00000  0.05    0.10
;
_shelx_res_checksum              5927
_shelx_hkl_file
;
   0   0   2  948.30   48.09
   0   0  -2  916.60   28.06
   0   0   2  846.05   22.74
   0   0  -2  884.04   24.26
   0   0   3   93.39   13.32
   0   0  -3  121.93   16.36
   0   0  -3   99.60   13.69
   0   0   4  845.98   29.10
   0   0  -4  898.25   29.74
   0   0  -4  884.18   25.43
   0   0   5   71.04   12.58
   0   0  -5   81.07   12.42
   0   0  -5   74.98   12.20
   0   0   6  302.67   46.24
   0   0  -6  362.70   36.05
   0   0  -6  371.55   26.64
   0   0   7  139.38   18.58
   0   0  -7  131.29   15.16
   0   0  -7  147.58   26.35
   0   0   8 1973.72   69.25
   0   0  -8 2000.11  170.29
   0   0  -8 1970.36   61.89
   0   0   9  516.12   79.58
   0   0  -9  346.98   36.31
   0   0  10  188.48   37.16
   0   0 -10  140.26   27.22
   0   0  11  400.90   51.39
   0   0 -11  341.97   34.72
   0   0  12   57.15   14.87
   0   0 -12   34.31   13.93
   0   1  -219301.60  218.81
   0   1   219476.50  226.85
   0   1  -219969.97  233.16
   0  -1  -219688.54  226.09
   0  -1   219628.82  223.01
   0  -1   219654.33  227.33
   0   1  -3  928.19   25.44
   0   1   3  951.56   29.80
   0   1  -3  895.21   29.16
   0  -1  -3  894.20   27.20
   0  -1  -3  873.64   25.50
   0  -1   3  882.33   27.50
   0   1  -4  602.68   18.92
   0   1   4  627.77   24.63
   0   1  -4  651.32   60.24
   0  -1  -4  587.56   68.98
   0  -1  -4  605.82   20.29
   0  -1   4  585.91   22.88
   0   1  -5 3378.96   49.36
   0   1   5 3314.62   59.34
   0   1  -5 3355.91   59.08
   0  -1  -5 3308.60   55.84
   0  -1  -5 3407.12   50.98
   0  -1   5 3272.97   57.66
   0   1  -6  909.36   39.84
   0   1   6  963.74   70.66
   0   1  -6  913.56   65.82
   0  -1  -6  893.07   60.70
   0  -1  -6 1022.20   63.27
   0  -1   6  994.36   45.12
   0   1  -7 2401.89   76.06
   0   1   7 2302.96   81.44
   0   1  -7 2408.23   86.14
   0  -1  -7 2492.25   85.05
   0  -1  -7 2400.05   86.35
   0  -1   7 2507.31  116.33
   0   1   8 6362.85  182.15
   0   1  -8 6477.83  186.27
   0  -1   8 6663.36  191.15
   0  -1  -8 6851.20  193.57
   0  -1  -8 6498.56  177.61
   0   1   9  509.83   38.16
   0   1  -9  531.86   58.46
   0  -1   9  554.28   85.63
   0  -1  -9  496.67   47.00
   0   1 -10   86.47   25.54
   0   1  10  131.54   20.44
   0  -1  10  103.74   18.07
   0  -1 -10  136.94   21.56
   0   1  11  346.86   60.03
   0   1 -11  300.45   42.07
   0  -1  11  298.06   28.91
   0  -1 -11  286.35   36.51
   0   1  12  161.47   33.87
   0   1 -12  108.87   24.10
   0  -1  12  189.03   43.52
   0  -1 -12   98.70   25.47
   0   2   093661.47 3149.20
   0   2   097443.39 3277.37
   0  -2   089831.02 3020.27
   0  -2   087722.89 2950.22
   0   2   112977.70  152.87
   0   2   112958.61  151.78
   0   2  -112775.01  149.15
   0   2  -112843.18  152.60
   0  -2  -112682.67  148.08
   0  -2   112390.68  143.64
   0   2   212219.00  145.67
   0   2   212086.77  144.08
   0   2  -212054.37  140.92
   0   2  -212443.26  150.33
   0  -2  -212226.14  143.84
   0  -2   212406.83  147.34
   0   2   3 4156.92  143.89
   0   2   3 4124.98  143.86
   0   2  -3 4211.58  144.28
   0   2  -3 4207.42  147.43
   0  -2  -3 4050.89  140.23
   0  -2   3 4100.10  143.32
   0   2  -4 5406.83   71.52
   0   2   4 5420.95   91.97
   0   2  -4 5341.09   80.24
   0  -2  -4 5322.85   75.21
   0  -2  -4 5291.95   73.52
   0  -2   4 5310.84   76.85
   0   2  -5 4635.26   63.11
   0   2   5 4870.29  130.93
   0   2  -5 4554.08   74.47
   0  -2  -5 4619.29   71.86
   0  -2  -5 4564.73   67.11
   0  -2   5 4536.03   72.81
   0   2  -6 1244.23   35.04
   0   2   6 1287.46   46.78
   0   2  -6 1317.67  114.23
   0  -2  -6 1402.66   45.55
   0  -2  -6 1308.05   63.41
   0  -2   6 1303.15   46.35
   0   2  -7  626.52   21.58
   0   2   7  623.91   79.34
   0   2  -7  610.45   72.21
   0  -2  -7  549.06   56.65
   0  -2  -7  633.40   32.42
   0  -2   7  558.79   78.83
   0   2   8 1047.55  113.33
   0   2  -8 1014.79   80.71
   0  -2   8  921.17   91.07
   0  -2  -8 1042.58   35.44
   0  -2  -8  946.54   53.66
   0   2   9  337.21   32.95
   0   2  -9  310.98   39.83
   0  -2   9  313.65   47.49
   0  -2  -9  303.75   40.02
   0  -2  -9  300.91   43.53
   0   2  10 1281.13   85.66
   0   2 -10 1199.30  116.36
   0  -2  10 1263.60  146.95
   0  -2 -10 1120.56  116.14
   0   2  11  115.82   23.83
   0   2 -11  147.33   35.27
   0  -2  11  143.45   29.60
   0  -2 -11  150.99   38.07
   0   2  12   39.33   33.18
   0   2 -12   39.26   13.09
   0  -2  12   48.67   20.07
   0  -2 -12   88.43   25.43
   0   3   0    1.70    6.34
   0   3   0  -19.06   13.11
   0  -3   0   14.66    3.31
   0   3   1 4951.43   62.46
   0   3  -1 4910.94   60.99
   0   3  -1 4953.81   65.48
   0   3  -1 4910.45   66.05
   0   3   1 4953.20   66.76
   0  -3  -1 4935.41   63.71
   0   3   2 5569.15   75.16
   0   3   2 5591.38   72.94
   0   3  -2 5787.35   75.35
   0   3  -2 5522.59   75.63
   0  -3  -2 5688.70   72.85
   0  -3   2 5576.77   71.72
   0   3   3 2629.46   70.00
   0   3   3 2737.15   73.55
   0   3  -3 2769.57   71.57
   0   3  -3 2699.14   73.46
   0  -3  -3 2682.61   69.76
   0  -3   3 2748.62   72.62
   0   3  -412597.10  166.30
   0   3  -412517.95  155.15
   0   3   412700.87  162.14
   0  -3  -412553.45  159.59
   0  -3   412507.00  161.28
   0   3  -5 3128.81   58.55
   0   3   5 3085.00   67.48
   0   3  -5 3119.79   68.40
   0  -3  -5 3062.50   63.17
   0  -3  -5 3101.83   69.98
   0  -3   5 3090.27   64.44
   0   3  -6 3162.18   79.33
   0   3   6 3256.09   90.54
   0   3  -6 3199.47   90.19
   0  -3  -6 3210.99   87.00
   0  -3  -6 3330.31   87.46
   0  -3   6 3236.16  109.39
   0   3  -7 4838.37  162.19
   0   3   7 5571.56  207.48
   0   3  -7 4851.86  171.16
   0  -3  -7 5183.16  181.87
   0  -3  -7 5204.17  177.25
   0  -3   7 5146.74  181.79
   0   3   8 4404.25  145.86
   0   3  -8 4790.06  157.93
   0  -3   8 4905.70  160.20
   0  -3  -8 4838.05  156.62
   0  -3  -8 4739.95  148.40
   0   3   9  501.97   71.23
   0   3  -9  448.15   40.99
   0  -3   9  432.01   53.93
   0  -3  -9  506.19   34.79
   0  -3  -9  375.38   49.39
   0   3  10  199.61   38.26
   0   3 -10   96.54   23.04
   0  -3  10  122.08   21.37
   0  -3 -10  131.12   26.82
   0   3  11  982.28  159.86
   0   3 -11  955.70  112.50
   0  -3  11  940.54   87.90
   0  -3 -11  982.51   45.97
   0   4   0 1629.02   42.41
   0   4   0 1573.53   45.77
   0  -4   0 1555.69   44.23
   0   4   1  708.01   21.74
   0   4  -1  711.16   21.27
   0   4  -1  672.21   23.68
   0   4  -1  756.83   69.44
   0   4   1  743.87   58.11
   0  -4  -1  688.53   23.05
   0   4   2 3547.48   92.97
   0   4   2 3632.37   93.39
   0   4  -2 3614.59   93.38
   0   4  -2 3492.33   95.73
   0  -4  -2 3673.22   93.37
   0  -4   2 3645.45   92.40
   0   4  -3 1013.26   93.09
   0   4  -3  975.09   38.50
   0   4   3 1036.38   82.48
   0  -4  -3  875.36   36.37
   0  -4   3  993.31   39.07
   0   4   4 1459.53   73.16
   0   4   4 1673.84   66.45
   0   4  -4 1487.52   55.44
   0   4  -4 1470.02   58.94
   0  -4  -4 1703.38   63.94
   0  -4   4 1611.40   61.41
   0   4  -5 4525.54   83.21
   0   4   5 4553.94   90.69
   0   4  -5 4477.90   92.69
   0  -4  -5 4570.09   87.63
   0  -4  -5 4651.35   91.09
   0  -4   5 4557.28   91.27
   0   4  -6 2511.82   84.16
   0   4   6 2631.74   90.94
   0   4  -6 2425.03   85.09
   0  -4  -6 2493.92   91.95
   0  -4  -6 2651.69   98.95
   0  -4   6 2470.09   87.42
   0   4  -7 1169.40   70.04
   0   4   7 1348.19  150.93
   0   4  -7 1256.75  148.30
   0  -4  -7 1144.77   44.60
   0  -4  -7 1259.89   65.86
   0  -4   7 1228.25   52.74
   0   4  -8   16.68    6.92
   0  -4  -8    7.24    9.35
   0  -4   8   35.97   13.12
   0  -4  -8   28.57    8.08
   0   4   9  386.83   65.03
   0   4  -9  363.44   32.63
   0  -4   9  330.95   61.43
   0  -4  -9  305.46   27.09
   0  -4  -9  348.51   42.50
   0   4  10 1130.80   42.74
   0   4 -10 1146.50  103.23
   0  -4  10 1060.05  147.89
   0  -4 -10  911.12  129.86
   0   4  11  323.15  103.41
   0   4 -11  107.20   30.70
   0  -4  11  126.01   31.77
   0  -4 -11  128.57   28.35
   0   5   0    9.82    4.30
   0   5   0  -17.54   14.58
   0  -5   0  -21.23    9.23
   0   5   1  347.11   13.88
   0   5  -1  378.72   26.38
   0   5   1  364.33   43.15
   0   5  -1  408.59   49.43
   0  -5  -1  356.50   52.17
   0   5   2  755.54   33.50
   0   5   2  767.91   31.72
   0   5  -2  752.33   37.90
   0   5  -2  813.77   81.76
   0  -5  -2  820.56   34.89
   0  -5   2  773.66   31.11
   0   5   3 1392.85   56.25
   0   5   3 1453.32   56.81
   0   5  -3 1309.27   51.58
   0   5  -3 1269.34   61.29
   0  -5  -3 1201.13   47.64
   0  -5   3 1246.02   47.76
   0   5   4 2079.81   51.13
   0   5   4 2148.04   61.37
   0   5  -4 2188.62   47.88
   0   5  -4 2160.97   57.11
   0  -5  -4 2160.92   47.89
   0  -5   4 2123.13   55.25
   0   5   5 1943.74   64.64
   0   5   5 1921.27   58.30
   0   5  -5 1968.32   54.70
   0   5  -5 1863.29   58.47
   0  -5  -5 2012.39   56.99
   0  -5   5 1977.09   57.56
   0   5  -6  850.47   32.41
   0   5   6 1125.57  100.32
   0   5  -6  901.87   85.02
   0  -5  -6  849.10  104.58
   0  -5  -6  902.02   99.90
   0  -5   6  936.64   36.18
   0   5  -7 3032.49   90.69
   0   5   7 3000.29  104.60
   0   5  -7 3133.47  104.48
   0  -5  -7 3125.13  116.81
   0  -5  -7 3225.36  133.59
   0  -5   7 3305.70  100.92
   0   5   8 1515.24  177.50
   0   5  -8 1385.00   73.18
   0  -5   8 1397.70   73.67
   0  -5  -8 1327.19  155.80
   0  -5  -8 1445.17   72.22
   0   5   9 1186.13  146.27
   0   5  -9 1151.52   43.92
   0  -5   9 1098.14  144.50
   0  -5  -9  944.46  117.24
   0  -5  -9 1138.57   36.35
   0   5  10   52.67   22.28
   0   5 -10   38.74   10.62
   0  -5  10    6.65   20.05
   0  -5 -10   18.32    7.58
   0   5  11  360.27   73.40
   0   5 -11  302.63   43.50
   0  -5  11  303.13   62.73
   0  -5 -11  243.73   45.10
   0   6   0 8470.42  108.42
   0   6   0 8135.27  115.49
   0  -6   0 8087.72  111.10
   0   6   1  155.76   23.92
   0   6  -1  156.32   21.51
   0   6  -1  177.79   17.00
   0   6   1  180.77   17.18
   0  -6   1  175.73   28.65
   0  -6  -1  164.17   30.28
   0   6   2  695.17   32.99
   0   6   2  821.20   53.10
   0   6  -2  846.42   77.18
   0   6  -2  669.60   32.61
   0  -6  -2  676.89   30.22
   0  -6   2  743.89   30.65
   0   6   3  961.86   74.98
   0   6   3  925.65   39.10
   0   6  -3 1125.95   88.39
   0   6  -3  919.45   42.67
   0  -6  -3  919.32   39.87
   0  -6   3  947.17   39.76
   0   6   410221.28  231.69
   0   6   410071.11  243.25
   0   6  -410075.55  243.25
   0   6  -4 9853.24  242.80
   0  -6  -410335.76  230.41
   0  -6   410299.04  230.72
   0   6   5  297.20   24.70
   0   6   5  258.63   17.09
   0   6  -5  279.29   17.26
   0   6  -5  296.24   26.60
   0  -6  -5  284.56   44.52
   0  -6   5  305.30   50.27
   0   6  -6  632.85   20.73
   0   6   6  675.43   80.69
   0   6  -6  578.75   28.23
   0  -6   6  561.80   80.22
   0  -6  -6  609.02   86.89
   0   6  -7 1338.89  164.83
   0   6  -7 1220.83   43.66
   0  -6  -7 1291.08   49.14
   0  -6  -7 1272.25   52.12
   0  -6   7 1308.60   49.05
   0   6   8 3347.43  153.55
   0   6  -8 3176.15  143.07
   0  -6   8 3319.23  148.24
   0  -6  -8 3543.98  330.84
   0  -6  -8 3400.62  169.88
   0   6   9   65.58   15.63
   0   6  -9   43.72   14.04
   0  -6   9   52.62   11.98
   0  -6  -9   53.84   13.25
   0  -6  -9   64.65   12.44
   0   6  10  517.60   79.01
   0   6 -10  438.17   54.29
   0  -6  10  416.71   57.64
   0  -6 -10  360.02   53.64
   0   6 -11  163.44   40.04
   0   6  11  156.09   41.52
   0  -6  11  148.86   40.05
   0   7   0   -5.68    6.94
   0   7   0   13.21    8.95
   0  -7   0   -2.01    7.95
   0   7   1  452.58   31.21
   0   7  -1  418.08   35.39
   0   7  -1  401.59   24.36
   0   7   1  424.37   42.30
   0  -7   1  372.89   69.92
   0  -7  -1  433.07   64.73
   0   7   2  567.14   46.04
   0   7   2  634.29   49.74
   0   7  -2  573.73   30.31
   0  -7   2  592.24   50.90
   0  -7  -2  587.94   27.60
   0   7   3  162.10   20.35
   0   7   3  131.67   10.81
   0   7  -3  144.58   15.79
   0   7  -3  145.48   17.18
   0  -7  -3  124.12   22.74
   0  -7   3  111.55   15.24
   0   7   4  577.07   41.94
   0   7   4  517.39   52.56
   0   7  -4  460.01   23.94
   0   7  -4  447.65   28.32
   0  -7  -4  456.90   63.67
   0  -7   4  530.13   67.86
   0   7   5 1598.09  132.61
   0   7   5 1495.35   61.71
   0   7  -5 1502.99   58.73
   0   7  -5 1533.39  166.17
   0  -7  -5 1499.72   59.53
   0  -7   5 1591.50   61.54
   0   7   6 1263.85  123.07
   0   7   6 1266.38   54.18
   0   7  -6 1310.53   76.96
   0   7  -6 1178.69   52.78
   0  -7  -6 1276.64   49.94
   0  -7   6 1357.51   53.13
   0   7  -7 1621.61  133.83
   0   7   7 1807.45   92.40
   0   7  -7 1689.14  112.64
   0  -7  -7 1765.71   83.85
   0  -7  -7 1685.99  176.93
   0  -7   7 1867.92   97.98
   0   7   8 1658.02   54.43
   0   7  -8 1511.44  161.61
   0  -7   8 1573.84   45.46
   0  -7  -8 1418.26   45.00
   0  -7  -8 1539.01   70.66
   0   7   9  108.92   28.92
   0   7  -9   49.49    9.90
   0  -7   9  120.34   23.49
   0  -7  -9   55.82   12.09
   0  -7  -9   99.26   20.33
   0   7 -10  145.01   32.46
   0   7  10  198.37   51.93
   0  -7  10  167.87   39.30
   0  -7 -10   91.65   28.14
   0   8   0 3446.87   87.29
   0   8   0 3292.18   91.96
   0  -8   0 3513.97   94.47
   0   8   1 1737.71   48.05
   0   8  -1 1733.41   47.40
   0   8  -1 1778.67   57.53
   0   8   1 1983.62  148.90
   0  -8   1 1775.52   56.88
   0  -8  -1 1815.15   54.67
   0   8   2 2370.95  165.65
   0   8   2 2281.86   74.58
   0   8  -2 2424.11   85.23
   0  -8  -2 2447.59   82.12
   0  -8   2 2449.18   93.60
   0  -8   2 2372.88   78.54
   0   8   3  937.09   83.96
   0   8   3 1075.48   90.15
   0   8  -3  862.53   36.02
   0   8  -3  920.72   48.51
   0  -8  -3  919.82   33.56
   0  -8   3  923.46   29.97
   0   8   4 2132.23  162.71
   0   8   4 2288.12   85.82
   0   8  -4 2214.65   83.15
   0   8  -4 2193.26  200.82
   0  -8  -4 2165.37   80.52
   0  -8   4 2080.01   75.84
   0   8   5  404.04   29.99
   0   8   5  459.82   57.03
   0   8  -5  424.56   47.22
   0   8  -5  456.67   43.03
   0  -8  -5  369.94   20.28
   0  -8   5  441.91   48.47
   0   8   6  871.67   67.98
   0   8   6  882.29   39.39
   0   8  -6  832.06   69.66
   0   8  -6  977.62   83.98
   0  -8  -6  798.57  114.46
   0  -8   6  907.01   40.67
   0   8  -7  560.41   29.47
   0   8   7  529.32   67.20
   0   8  -7  508.09   40.88
   0  -8  -7  468.38   49.93
   0  -8  -7  498.29   77.38
   0  -8   7  493.83   62.88
   0   8   8 1349.90   67.66
   0   8  -8 1240.43   67.73
   0  -8   8 1235.90   46.53
   0  -8  -8  983.94  148.51
   0  -8  -8 1330.98   62.33
   0   8   9  125.68   28.31
   0  -8   9   75.81   18.54
   0  -8  -9   87.64   20.62
   0  -8  -9  117.04   27.99
   0   8 -10  580.60   65.96
   0   8  10  410.34   73.80
   0  -8  10  433.40   69.95
   0   9   0   14.82    5.53
   0   9   0   -3.86   16.43
   0  -9   0   22.48   11.20
   0   9   1 2262.19   80.15
   0   9  -1 2315.61  107.78
   0   9  -1 2290.33  163.45
   0   9   1 2206.61  171.19
   0  -9   1 2450.14   93.28
   0  -9  -1 2309.43   86.00
   0   9   2  529.30   31.51
   0   9   2  571.91   24.68
   0   9  -2  611.18   52.98
   0  -9  -2  660.32   80.38
   0  -9   2  588.01   84.73
   0  -9   2  560.93   43.57
   0   9   3 2463.89   84.19
   0   9   3 2457.23   75.07
   0   9  -3 2299.83   94.59
   0  -9  -3 2273.85   72.17
   0  -9   3 2318.61   79.61
   0  -9   3 2329.57   69.82
   0   9   4  441.79   44.72
   0   9   4  464.79   20.87
   0   9  -4  438.00   32.90
   0   9  -4  430.38   26.62
   0  -9  -4  390.82   71.83
   0  -9   4  439.15   49.66
   0   9   5 1001.72  109.91
   0   9   5  920.19   38.63
   0   9  -5  973.98   73.73
   0   9  -5  891.27   55.51
   0  -9  -5 1039.24   43.28
   0  -9   5  825.30  109.55
   0   9   6 1182.04  105.75
   0   9   6 1268.20  105.25
   0   9  -6 1185.91   59.14
   0   9  -6 1277.67   71.44
   0  -9  -6 1165.89  125.13
   0  -9   6 1195.28   58.04
   0   9  -7  108.12   21.44
   0   9   7  149.98   30.59
   0   9  -7  154.36   29.33
   0  -9  -7  132.59   22.70
   0  -9  -7  155.90   27.25
   0  -9   7  121.31   23.67
   0   9   8   33.72   14.07
   0   9  -8   10.40   20.92
   0  -9   8   -0.51   14.06
   0  -9  -8   11.56   18.13
   0  -9  -8   46.75   13.93
   0   9  -9   47.64   24.51
   0   9   9   49.58   17.22
   0  -9   9   44.12   18.10
   0  -9  -9   41.38   14.68
   0  10   0  673.61   19.93
   0  10   0  729.56   66.07
   0 -10   0  745.39   94.18
   0  10   1  392.41   61.15
   0  10  -1  395.07   27.29
   0  10   1  431.80   32.30
   0  10  -1  457.96   36.00
   0 -10   1  507.11   64.80
   0 -10  -1  434.16   61.33
   0  10   2 3362.89  116.50
   0  10   2 3488.02  111.00
   0  10  -2 3406.62  119.84
   0 -10  -2 3531.79  120.93
   0 -10   2 3778.13  127.77
   0 -10   2 3528.69  113.69
   0  10   3   32.91    8.99
   0  10   3   20.71    5.41
   0  10  -3   81.77   22.50
   0 -10  -3   27.01   12.76
   0 -10   3   20.07   10.98
   0 -10   3   30.18    5.07
   0  10   4  814.08   83.98
   0  10   4  779.28   42.04
   0  10  -4  749.31   76.15
   0 -10  -4  656.31   99.33
   0 -10   4  669.09   73.82
   0 -10   4  596.44   75.55
   0  10   5  276.47   38.35
   0  10   5  255.07   47.41
   0  10  -5  294.27   38.24
   0  10  -5  264.88   38.80
   0 -10  -5  234.23   35.48
   0 -10   5  227.63   34.94
   0  10   6   61.15   11.93
   0  10   6   72.71   10.99
   0  10  -6   76.87   11.77
   0  10  -6   77.43   20.98
   0 -10  -6   62.37   11.41
   0 -10   6   74.98   12.66
   0  10   7  279.13   30.73
   0  10  -7  301.04   34.61
   0 -10   7  255.01   51.05
   0 -10  -7  259.93   56.01
   0 -10  -7  266.08   55.06
   0  10   8   11.46   10.19
   0  10  -8   37.61   23.97
   0 -10  -8   31.08   13.29
   0  10   9  126.76   31.42
   0  10  -9   84.82   29.66
   0 -10  -9   92.17   26.31
   0  11   0   -1.76   17.83
   0 -11   0  -25.97   15.30
   0  11   1 1198.93   93.84
   0  11  -1 1033.98   89.86
   0 -11   1 1156.18   62.12
   0 -11  -1 1032.05   99.66
   0  11   2  460.23   49.00
   0  11  -2  585.77   68.91
   0  11   2  598.77   57.32
   0 -11   2  521.50   69.15
   0 -11  -2  596.53   75.30
   0  11   3 1515.55   89.81
   0  11  -3 1558.14  113.50
   0  11   3 1544.38   80.93
   0 -11   3 1624.78   88.77
   0 -11  -3 1644.67   78.02
   0  11   4   42.29    9.85
   0  11  -4   60.77   12.27
   0 -11  -4   38.76   10.30
   0 -11   4   68.73   16.11
   0  11   5  888.84   33.28
   0  11  -5  781.43  127.27
   0  11   5  846.76   65.27
   0 -11   5  722.25  125.11
   0 -11  -5  664.84  108.88
   0  11   6 1166.56  125.11
   0  11  -6 1240.44  108.96
   0  11  -6 1637.96  269.89
   0  11   6 1322.08  120.90
   0 -11  -6 1493.09   43.63
   0  11   7   10.72   11.23
   0  11  -7   17.54   23.58
   0 -11  -7   57.62   20.34
   0  11   8  131.01   32.84
   0  11  -8   87.15   20.55
   0 -11  -8   88.30   21.87
   0  12   0  168.02   31.87
   0 -12   0  142.65   33.42
   0  12  -1  277.88   46.98
   0  12   1  271.01   27.59
   0 -12   1  215.88   48.85
   0 -12  -1  212.93   47.95
   0  12  -2  528.81   49.02
   0  12   2  501.01   55.48
   0 -12   2  567.77   68.00
   0 -12  -2  457.69   62.50
   0  12  -3  178.17   38.46
   0  12   3  177.91   33.58
   0 -12   3  232.72   33.46
   0 -12  -3  204.01   37.31
   0  12  -4  335.21   34.76
   0  12   4  354.59   32.37
   0 -12   4  270.58   59.59
   0 -12  -4  254.23   53.76
   0  12  -5   55.59   14.95
   0 -12  -5   32.63   12.70
   0 -12   5   49.49   12.68
   0  12   6  139.36   38.51
   0  12  -6   90.56   26.92
   0 -12   6  130.82   31.55
   0 -12   7  142.87   42.76
   0 -12  -7  171.65   39.58
   0  13   0   23.68   10.47
   0 -13   0  -16.50   17.17
   0  13  -1   34.38   11.59
   0  13   1    4.51   20.97
   0 -13   1   25.30    7.47
   0 -13  -1   26.07    8.89
   0  13  -2   32.44   19.21
   0  13   2   33.82   12.41
   0 -13   2   24.99   16.15
   0 -13  -2   16.74   11.16
   0  13  -3  124.22   26.15
   0  13   3  120.99   25.13
   0 -13   3  143.88   33.09
   0 -13  -3  127.49   28.30
   0  13  -4  175.42   38.43
   0  13   4  245.60   48.44
   0 -13   4  338.97   43.91
   0 -13  -4  195.06   46.53
   0  13   5   52.38   22.76
   0  13  -5   56.24   21.21
   0 -13   5   57.29   24.01
   0  14   0   92.33   30.68
   0 -14   0   83.48   23.11
   0  14   1   24.18   13.27
   0  14  -1   66.86   20.82
   0 -14   1   19.26   22.14
   0 -14  -1   -2.39   16.79
   0  14  -2  919.14  137.72
   0  14   2  932.47   52.72
   0 -14   2  885.66  106.50
   0 -14  -2  751.86  115.40
   0  14   3  197.24   33.80
   0  14  -3  266.26   48.84
   0 -14   3  314.34   54.29
   0  14   4  313.24   40.68
   0  14  -4  307.79   32.99
   0 -14   4  287.41   62.27
  -1   0  12   94.47   34.30
   1   0 -12   36.10   14.53
  -1   0  11  310.29   59.10
   1   0 -11  322.18   38.91
  -1   0  10  786.07   96.51
   1   0 -10  844.21   94.04
  -1   0   9   92.91   14.68
   1   0  -9   69.90   14.88
  -1   0   8 1659.97   69.20
   1   0  -8 1675.85  164.88
  -1   0   7 1687.95   60.77
   1   0  -7 1507.52   58.66
   1   0  -7 1518.70   42.72
  -1   0   6  -11.65   15.34
   1   0  -6   30.27    9.97
   1   0  -6    3.03    2.69
  -1   0   5 1311.65   55.28
   1   0  -5 1281.99   52.02
   1   0  -5 1312.61   46.43
  -1   0   4  935.40   31.61
   1   0  -4  884.84   44.13
   1   0  -4  916.38   24.19
  -1   0   331170.50  358.75
   1   0  -332206.12  369.64
   1   0  -330917.85  345.61
  -1   0   230526.72  347.23
   1   0  -231012.47  352.70
   1   0  -229941.46  334.15
  -1   0   231679.30  353.37
   1   0   128577.44  324.90
  -1   0  -128672.45  325.09
   1   0   2 7639.78   95.72
  -1   0  -2 7709.82   94.40
  -1   0  -2 7635.64   97.81
   1   0   319779.57  234.42
  -1   0  -320206.93  237.49
  -1   0  -319852.45  231.20
   1   0   4   51.21   17.46
  -1   0  -4   26.07    9.28
  -1   0  -4   11.65    6.21
   1   0   5 4714.24   95.11
  -1   0  -5 4745.40   91.00
  -1   0  -5 4606.32   88.89
   1   0   6  -11.38   15.47
  -1   0  -6   15.95    8.46
  -1   0  -6   -0.04    8.50
   1   0   7 1205.15   41.26
  -1   0  -7 1108.75  107.17
  -1   0  -7 1221.22   73.74
   1   0   8  276.21   35.75
  -1   0  -8  293.91   34.54
  -1   0  -8  298.25   44.89
   1   0   9  115.04   14.80
  -1   0  -9  154.11   29.38
   1   0  10 1000.91  131.41
  -1   0 -10  901.89  101.13
   1   0  11 1117.21   64.50
  -1   0 -11  797.51   93.83
   1   1 -12  180.94   41.02
  -1   1  12  192.21   42.02
  -1  -1  12  156.54   41.12
   1  -1 -12  121.95   39.65
  -1   1  11  180.54   35.56
   1   1 -11  123.21   26.60
  -1  -1  11  198.51   37.13
   1  -1 -11  199.00   43.42
  -1   1  10  115.38   22.22
   1   1 -10  110.74   16.38
  -1  -1  10  100.33   16.74
   1  -1 -10  117.02   21.93
  -1   1   9  338.23  106.42
   1   1  -9  339.77   39.85
  -1  -1   9  366.20   53.89
   1  -1  -9  358.35   48.56
  -1   1   8 6622.12  229.08
   1   1  -8 6442.88  223.14
  -1  -1   8 6388.92  222.06
   1  -1  -8 6346.69  228.51
   1  -1  -8 6151.25  207.63
  -1   1   7  776.58   56.63
   1   1  -7  861.97   83.12
  -1  -1   7  689.64   30.90
   1  -1  -7  790.91   80.93
   1  -1  -7  734.46   47.77
   1   1  -6  165.81   18.46
  -1   1   6  155.74   25.85
   1   1  -6  175.71   31.91
   1  -1  -6  208.27   32.11
   1  -1  -6  169.08   25.30
  -1  -1   6  190.38   29.22
   1   1  -5 4552.09   56.42
  -1   1   5 4630.56   72.20
   1   1  -5 4509.11   72.13
   1  -1  -5 4522.12   75.11
   1  -1  -5 4492.64   60.29
  -1  -1   5 4567.16   72.26
   1   1  -4 5600.01   64.74
  -1   1   4 5397.14   76.43
   1   1  -4 5543.22   78.99
  -1  -1   4 5511.29   86.04
   1  -1  -4 5434.97   76.52
  -1   1   3 7467.12   89.33
  -1   1   3 7657.01   96.91
   1   1  -3 7699.06   99.63
  -1  -1   3 7445.53   95.53
   1  -1  -3 7630.52   98.15
   1   1  -238330.42  434.38
  -1   1   237837.94  427.83
   1   1  -236737.38  409.47
  -1   1   238182.32  429.32
  -1  -1   238510.26  437.37
   1   1  -116315.77  186.69
  -1   1   116712.18  189.14
   1   1  -116615.12  190.40
  -1   1   116787.76  191.79
  -1  -1   116629.59  189.52
   1  -1  -116125.16  185.72
  -1  -1   116183.23  183.24
   1  -1  -116332.89  184.98
  -1  -1   116135.28  183.96
   1   1   122996.31  258.05
   1   1   123895.88  274.07
  -1   1  -123701.64  271.38
  -1  -1  -123724.25  266.18
   1  -1   122772.64  259.09
  -1  -1  -122941.24  262.81
   1   1   234966.15  399.70
  -1   1  -234868.65  398.35
  -1   1  -234000.71  386.19
  -1  -1  -235026.83  395.68
  -1  -1  -234652.71  395.32
  -1   1  -3  765.53   30.87
   1   1   3  821.39   29.32
  -1   1  -3  789.40   26.44
  -1  -1  -3  754.04   24.00
  -1  -1  -3  740.45   26.75
   1  -1   3  732.73   24.96
  -1   1  -4 3650.41   55.11
   1   1   4 3849.41   81.91
   1  -1   4 3743.07   71.03
  -1  -1  -4 3615.52   57.12
  -1  -1  -4 3716.66   72.30
  -1   1  -5 1431.13   33.96
   1   1   5 1376.12   40.18
  -1   1  -5 1326.15   46.92
  -1  -1  -5 1256.90   39.85
  -1  -1  -5 1335.63   39.76
   1  -1   5 1343.58   45.23
   1   1   6 2319.83   69.17
  -1   1  -6 2343.95   68.73
  -1   1  -6 2312.80   63.26
  -1  -1  -6 2407.44   68.63
  -1  -1  -6 2335.21   63.19
   1  -1   6 2287.08   82.99
  -1   1  -7 1853.23   69.35
   1   1   7 2115.18   96.27
  -1   1  -7 1750.86  168.73
  -1  -1  -7 1829.19  134.44
  -1  -1  -7 1894.51  118.93
   1  -1   7 1839.56  100.58
  -1   1  -8 3289.71  105.63
   1   1   8 3448.62  120.61
  -1   1  -8 3401.47  115.96
  -1  -1  -8 3351.75  121.46
  -1  -1  -8 3330.21  107.10
   1  -1   8 3389.42  118.86
   1   1   9  272.50   25.64
  -1   1  -9  348.33   31.11
   1  -1   9  414.35   55.01
  -1  -1  -9  364.01   55.87
  -1  -1  -9  359.42   29.45
   1   1  10   32.24   12.51
  -1   1 -10   43.28   10.68
   1  -1  10   -3.72   13.27
  -1  -1 -10   13.04    7.20
   1   1  11  726.60  119.14
  -1   1 -11  673.34   39.97
   1  -1  11  630.36   92.42
  -1  -1 -11  552.14   86.70
  -1   2  12  450.92   84.28
   1   2 -12  368.24   69.41
  -1  -2  12  526.74   89.27
   1  -2 -12  396.50   66.18
  -1   2  11  496.99   95.04
   1   2 -11  441.69   46.65
  -1  -2  11  508.64   84.80
   1  -2 -11  415.84   47.85
  -1   2  10  867.81  117.29
   1   2 -10  778.10   69.06
  -1  -2  10  896.71  104.47
   1  -2 -10  792.04   89.35
   1   2  -9 2909.49  233.34
   1  -2  -9 3010.19  101.50
  -1  -2   9 3040.72   98.81
  -1   2   8 2569.35   85.24
   1   2  -8 2591.38   86.01
  -1  -2   8 2627.23   88.86
   1  -2  -8 2593.94   85.47
   1  -2  -8 2566.60   76.17
  -1   2   7  180.94   20.52
   1   2  -7  182.79   22.10
  -1  -2   7  216.93   31.04
   1  -2  -7  227.26   24.13
   1  -2  -7  193.69   23.35
   1   2  -6 4377.47   75.72
  -1   2   6 4552.60   90.50
   1   2  -6 4488.36   92.19
   1  -2  -6 4498.26   89.28
   1  -2  -6 4362.31   82.49
  -1  -2   6 4447.50   90.11
   1   2  -5 4211.62   53.39
  -1   2   5 4258.02   68.28
   1   2  -5 4219.25   70.48
  -1  -2   5 4427.19   71.52
   1  -2  -5 4286.79   67.98
  -1   2   4  633.43   22.45
  -1   2   4  615.06   25.84
   1   2  -4  616.87   17.55
   1   2  -4  689.89   65.62
   1  -2  -4  612.74   49.58
  -1  -2   4  611.68   23.52
  -1   2   313431.57  159.14
  -1   2   313377.20  163.82
   1   2  -313573.26  155.59
   1   2  -313666.78  166.67
   1  -2  -313326.14  160.39
  -1  -2   313337.17  163.55
  -1   2   2 8692.18  103.94
  -1   2   2 8814.02  107.24
   1   2  -2 8827.39  109.09
   1   2  -2 8884.69  104.22
   1  -2  -2 8722.75  106.53
   1   2  -140904.91  460.98
  -1   2   139390.28  440.53
   1   2  -139593.57  447.41
  -1   2   141237.83  466.90
   1  -2  -139231.08  447.55
   1  -2  -140179.08  449.12
   1   2   036538.79  413.25
  -1   2   036055.84  409.31
   1   2   037042.50  419.76
   1  -2   035989.17  408.39
  -1  -2   036169.07  406.11
   1   2   1 3112.10   75.82
   1   2   1 2969.51   75.91
  -1   2  -1 3020.13   77.15
  -1   2  -1 3030.09   77.23
  -1  -2  -1 2961.92   72.45
  -1  -2  -1 2995.78   76.65
   1  -2   1 2910.75   72.65
  -1   2  -2 8742.89  107.48
   1   2   2 8423.90  106.25
  -1   2  -2 8978.96  113.45
  -1  -2  -2 8785.43  104.10
  -1  -2  -2 8734.43  109.03
   1  -2   2 8542.61  104.57
  -1   2  -3 7145.34   91.43
   1   2   3 7250.70  105.52
  -1   2  -3 7053.53  105.58
  -1  -2  -3 7278.11   91.31
  -1  -2  -3 7103.63   93.56
   1  -2   3 7174.95   97.01
  -1   2  -4 7574.75  108.23
  -1   2  -4 7669.08  101.24
  -1  -2  -4 7577.59  102.33
  -1  -2  -4 7652.84  169.30
   1  -2   4 7825.41  110.38
  -1   2  -5  123.48   20.15
   1   2   5  113.32   16.41
  -1   2  -5  122.86   18.97
  -1  -2  -5  105.51   10.48
  -1  -2  -5  110.25   15.93
   1  -2   5   91.14   15.49
  -1   2  -6 1558.09   60.43
   1   2   6 1719.34   83.98
  -1   2  -6 1656.61   53.01
  -1  -2  -6 1687.10   51.76
  -1  -2  -6 1642.23   48.92
   1  -2   6 1580.07   62.01
  -1   2  -7 1157.95   43.75
   1   2   7 1405.67  220.51
  -1   2  -7 1220.49  109.18
  -1  -2  -7 1184.71  102.50
  -1  -2  -7 1191.83   30.81
   1  -2   7 1225.00   53.25
  -1   2  -8  763.40   51.09
   1   2   8  750.60   51.96
  -1   2  -8  701.69   65.58
  -1  -2  -8  760.58   61.63
  -1  -2  -8  764.08   60.40
   1  -2   8  718.57   90.52
   1   2   9  -27.14   23.55
  -1   2  -9   28.68    9.91
   1  -2   9   -3.89   21.52
  -1  -2  -9    5.56   12.38
  -1  -2  -9   48.15   11.73
   1   2  10 2099.97   93.04
  -1   2 -10 1938.69  159.10
   1  -2  10 1965.21  170.13
  -1  -2 -10 1863.36   80.35
  -1   2 -11  211.12   41.62
  -1  -2 -11  218.49   48.35
   1  -2  11  265.46   64.47
  -1   3  12  349.05   49.35
   1   3 -12  350.26   44.80
  -1  -3  12  318.94   53.37
   1  -3 -12  245.41   40.29
  -1   3  11  340.96   56.76
   1   3 -11  417.37   52.85
  -1  -3  11  415.03   51.16
   1  -3 -11  322.04   41.59
  -1   3  10  339.94   59.76
   1   3 -10  403.72   46.60
  -1  -3  10  322.62   54.37
   1  -3 -10  362.61   48.52
  -1   3   9 1300.93   78.15
   1   3  -9 1396.39  161.14
  -1  -3   9 1333.54   72.57
   1  -3  -9 1236.10  135.46
   1  -3  -9 1160.09   83.82
  -1   3   8 3344.47  103.97
   1   3  -8 3332.68  104.44
  -1  -3   8 3283.61  104.72
   1  -3  -8 3339.90  101.94
   1  -3  -8 3246.61  103.39
  -1   3   7 1438.44   62.55
   1   3  -7 1414.37   55.67
  -1  -3   7 1477.15  109.24
   1  -3  -7 1415.71   53.88
   1  -3  -7 1452.43   67.86
   1   3  -6 1088.94   27.61
  -1   3   6 1099.74   37.54
   1   3  -6 1206.54   78.46
   1  -3  -6 1170.24  114.47
   1  -3  -6 1162.86   38.02
  -1  -3   6 1240.05   42.70
  -1   3   5 6119.54   85.58
  -1   3   5 6266.85   95.19
   1   3  -5 6086.20   77.72
   1   3  -5 6122.32   95.81
   1  -3  -5 6188.54   90.25
  -1  -3   5 6080.11   91.05
  -1   3   424094.77  291.64
  -1   3   424302.17  301.31
   1   3  -423547.55  279.70
  -1  -3   423933.90  293.57
   1  -3  -424182.37  295.21
  -1   3   313115.81  159.68
  -1   3   313109.12  163.07
   1   3  -313229.28  155.99
   1   3  -312878.29  171.53
   1  -3  -313163.07  171.85
  -1  -3   313026.26  162.49
  -1   3   2  385.63   13.72
   1   3  -2  385.35   28.47
  -1   3   2  382.17   31.45
   1   3  -2  380.89   45.90
   1   3  -2  390.04   33.47
   1  -3  -2  384.22   15.67
  -1   3   121950.49  247.54
   1   3  -122163.19  255.23
  -1   3   122481.42  262.19
   1   3  -122278.62  257.29
   1   3  -122411.82  259.30
   1  -3  -122136.94  256.58
  -1   3   041790.66  476.26
   1   3   041779.78  472.88
   1   3   042072.39  478.68
  -1  -3   040878.15  461.05
   1  -3   041246.82  459.39
   1  -3   041831.25  466.05
   1  -3   040237.83  458.15
   1   3   1  596.85   50.20
   1   3   1  497.33   24.20
  -1   3  -1  531.69   19.71
  -1   3  -1  598.65   52.04
  -1  -3  -1  478.22   16.49
   1  -3   1  527.40   15.24
   1   3   2 2447.76   66.52
   1   3   2 2382.78   64.10
  -1   3  -2 2536.03   67.48
  -1   3  -2 2330.73   63.83
  -1  -3  -2 2338.95   59.65
   1  -3   2 2322.96   62.28
  -1   3  -3 1922.91   72.17
  -1   3  -3 1949.04   71.28
  -1  -3  -3 1892.56   67.66
  -1  -3  -3 1964.32   73.48
   1  -3   3 1853.77   67.49
  -1   3  -413447.47  169.51
   1   3   413925.60  188.16
  -1   3  -413075.93  173.10
  -1  -3  -414034.27  176.27
  -1  -3  -413604.03  182.03
   1  -3   413273.30  170.24
  -1   3  -5  578.33   38.63
   1   3   5  513.32   29.35
  -1   3  -5  554.33   54.66
  -1  -3  -5  574.51   69.33
  -1  -3  -5  616.64   69.96
   1  -3   5  553.31   62.60
  -1   3  -6  458.17   34.36
   1   3   6  466.48   59.66
  -1   3  -6  536.74   49.40
  -1  -3  -6  463.52   50.23
  -1  -3  -6  469.06   41.21
   1  -3   6  476.78   74.07
  -1   3  -7  146.86   22.56
   1   3   7  185.23   24.09
  -1   3  -7  171.20   20.46
  -1  -3  -7  124.62   15.06
  -1  -3  -7  135.18   19.17
   1  -3   7  179.79   25.15
  -1   3  -8  146.17   16.34
  -1   3  -8  116.17   22.40
  -1  -3  -8  144.24   20.06
  -1  -3  -8  144.35   16.63
   1  -3   8  187.34   27.66
   1   3   9  432.43   65.05
  -1   3  -9  395.73   46.40
   1  -3   9  362.01   60.82
  -1  -3  -9  384.94   42.91
  -1  -3  -9  353.98   41.33
   1   3  10   25.69   12.02
  -1   3 -10   35.12    9.16
   1  -3  10   32.60   10.51
  -1  -3 -10   19.42   17.19
   1   3  11  711.43   89.96
  -1   3 -11  667.50   38.16
   1  -3  11  755.64  121.89
  -1  -3 -11  459.68   83.55
  -1   4  12  447.14   74.74
   1   4 -12  416.47   50.30
  -1  -4  12  437.51   65.10
   1  -4 -12  304.71   56.90
  -1   4  11  186.94   40.95
   1   4 -11  207.90   55.23
  -1  -4  11  138.86   30.13
   1  -4 -11  184.97   37.37
  -1   4  10 1287.34   65.88
   1   4 -10 1262.32  132.18
  -1  -4  10 1336.18  180.77
   1  -4 -10 1144.14  129.99
  -1   4   9 1701.89   90.58
   1   4  -9 1703.64  186.03
  -1  -4   9 1673.07   83.91
   1  -4  -9 1516.65  173.23
   1  -4  -9 1536.21   74.10
  -1   4   8  937.11  109.88
   1   4  -8  976.70   38.62
  -1  -4   8  904.21  132.04
   1  -4  -8  903.95   72.40
   1  -4  -8  983.45   28.71
  -1   4   7  526.60   89.83
   1   4  -7  412.80   59.90
  -1  -4   7  395.03   58.55
   1  -4  -7  378.24   52.33
   1  -4  -7  373.09   48.96
  -1   4   6 3006.83   85.31
  -1   4   6 2930.02   90.48
   1   4  -6 2925.62   73.08
   1   4  -6 2999.01   86.52
   1  -4  -6 2875.49   80.74
  -1  -4   6 2976.56   82.17
  -1   4   510989.34  258.26
  -1   4   511039.78  261.04
   1   4  -510648.42  178.92
   1   4  -510872.03  260.01
   1  -4  -510906.95  257.40
  -1  -4   510736.92  188.61
  -1   4   4  860.77   67.48
  -1   4   4  736.88   49.25
   1   4  -4  806.90   31.77
   1   4  -4  886.21   73.91
   1  -4  -4  780.01   44.05
  -1  -4   4  784.10   33.99
   1   4  -3   29.95   12.34
   1   4  -3    3.59    4.89
  -1   4   3  -16.77   13.11
   1  -4  -3   12.65    4.24
  -1  -4   3   19.56    8.18
  -1   4   2  861.10   25.37
   1   4  -2  950.82   56.15
  -1   4   2  867.14   30.66
   1   4  -2  951.34   84.53
   1   4  -2  984.88   70.52
   1  -4  -2  923.98   33.51
  -1   4   1  294.83   21.20
   1   4  -1  267.92   31.28
   1   4  -1  244.26   22.36
  -1   4   1  280.10   25.43
   1   4  -1  272.62   21.94
   1   4   015374.85  181.86
  -1   4   015392.97  174.15
  -1   4   015510.23  188.89
   1   4   015324.41  186.25
  -1  -4   015697.44  184.04
   1  -4   015480.49  186.58
   1   4   1   29.28    7.71
   1   4   1   27.53    9.33
   1  -4   1   27.39    3.95
  -1  -4  -1   30.64    4.97
   1   4   2 4379.83  154.25
   1   4   2 4458.79  155.48
  -1   4  -2 4567.33   67.36
  -1   4  -2 4383.00  154.91
  -1  -4  -2 4528.41   61.59
   1  -4   2 4542.07   60.09
  -1   4  -3 1135.01   44.77
   1   4   3 1029.34   42.88
  -1   4  -3 1196.09  103.40
   1  -4   3 1011.64   49.04
  -1  -4  -3 1034.74   42.28
  -1   4  -4 6379.52  115.40
   1   4   4 6161.49  119.49
  -1   4  -4 6061.73  116.11
  -1  -4  -4 6433.24  113.50
  -1  -4  -4 6278.58  116.24
   1  -4   4 6449.79  116.28
  -1   4  -5 1563.04   46.07
   1   4   5 1571.49   53.80
  -1   4  -5 1508.88   62.71
  -1  -4  -5 1596.82   46.96
  -1  -4  -5 1595.59   50.33
   1  -4   5 1594.86   52.07
  -1   4  -6 3792.96  124.25
   1   4   6 4027.56  143.02
  -1   4  -6 3708.46  123.57
  -1  -4  -6 3833.39  122.43
  -1  -4  -6 3782.07  150.57
   1  -4   6 3798.99  125.14
  -1   4  -7 3631.93  103.84
   1   4   7 3823.59  122.31
  -1   4  -7 3765.87  118.55
  -1  -4  -7 3842.25  112.71
  -1  -4  -7 3860.00  132.64
   1  -4   7 3894.22  117.31
   1   4   8 2698.34  132.50
  -1   4  -8 2768.07  130.23
   1  -4   8 2959.07  137.19
  -1  -4  -8 2714.99  124.17
  -1  -4  -8 2748.56  124.94
   1   4   9   34.65   11.74
  -1   4  -9   20.52    9.23
   1  -4   9   51.34   20.01
  -1  -4  -9   51.08    9.72
  -1  -4  -9   17.67   14.89
   1   4  10  986.79  180.78
  -1   4 -10  873.68   84.69
   1  -4  10  873.56  139.47
  -1  -4 -10  943.78   69.52
  -1   4 -11   10.02   13.49
   1   4  11   -3.14   25.05
   1  -4  11  -44.13   23.55
   1   5 -11  175.18   35.59
   1  -5 -11  140.90   31.52
  -1  -5  11  126.61   32.79
  -1   5  10  551.95  100.61
   1   5 -10  513.99   44.38
  -1  -5  10  547.70   75.51
   1  -5 -10  473.66   66.74
  -1   5   9 1120.52   64.48
   1   5  -9 1060.32  108.84
  -1  -5   9 1154.71  153.98
   1  -5  -9  914.20  152.83
   1  -5  -9 1108.91   68.46
   1   5  -8 1212.91  159.33
   1  -5  -8 1250.35  102.28
  -1  -5   8 1265.00   79.22
   1  -5  -8 1311.73   51.06
   1   5  -7  601.90   37.70
  -1   5   7  677.16  101.84
   1   5  -7  629.05   91.18
   1  -5  -7  635.27   64.78
   1  -5  -7  661.60   57.69
  -1  -5   7  668.83   99.22
  -1   5   6 8009.91  244.65
  -1   5   6 7888.22  242.99
   1   5  -6 7447.82  227.51
   1   5  -6 7536.90  234.57
   1  -5  -6 8156.20  249.84
  -1  -5   6 7743.79  239.78
  -1   5   5 2642.77   73.73
  -1   5   5 2690.34   74.64
   1   5  -5 2674.96   69.37
   1   5  -5 2446.56   71.34
   1  -5  -5 2722.60   75.37
  -1  -5   5 2526.08   73.30
  -1   5   410629.86  186.71
  -1   5   410460.38  186.89
   1   5  -410527.44  180.24
   1   5  -410425.41  185.44
   1  -5  -410768.97  187.42
  -1  -5   410733.97  187.06
   1   5  -3 1291.21   52.42
  -1   5   3 1299.12   51.75
  -1   5   3 1379.26  112.28
   1   5  -3 1362.37   51.90
  -1  -5   3 1300.78   57.95
  -1   5   2 1899.59   67.94
   1   5  -2 1900.96   69.58
  -1   5   2 1902.54   72.56
   1   5  -2 1921.52   72.03
   1   5  -2 1926.95   71.64
   1  -5  -2 2022.92   76.60
  -1   5   1 6542.86   81.90
   1   5  -1 6597.04   94.09
  -1   5   1 6530.58   95.23
   1   5  -1 6473.43   90.14
   1   5  -1 6429.79   94.92
   1  -5  -1 6616.59   95.06
   1   5   0 1893.13   51.85
  -1   5   0 1935.31   67.10
  -1   5   0 1881.34   54.84
   1   5   0 1946.00   57.37
  -1  -5   0 1802.92   50.87
   1  -5   0 1815.91   68.21
   1   5   1 1660.75   64.31
   1   5   1 1676.14   61.87
  -1   5  -1 1700.50   77.42
  -1  -5  -1 1714.97   62.26
   1  -5   1 1712.45   65.80
   1  -5   1 1684.00   61.05
   1   5   2 2454.11   90.87
   1   5   2 2503.74   90.57
  -1   5  -2 2460.59   90.37
  -1   5  -2 2476.21   92.78
  -1  -5  -2 2505.00   94.95
   1  -5   2 2530.00   88.74
   1   5   3 6154.67  115.78
   1   5   3 5962.92  110.48
  -1   5  -3 6104.25  111.87
  -1   5  -3 6244.55  119.19
  -1  -5  -3 6113.23  108.54
   1  -5   3 6165.88  108.76
  -1   5  -4  865.00   66.62
   1   5   4  945.01   75.04
  -1   5  -4  838.14   75.34
  -1  -5  -4  882.47   36.32
  -1  -5  -4  961.68  112.13
   1  -5   4  878.25   37.29
  -1   5  -5 1271.83   46.92
   1   5   5 1226.47   50.33
  -1   5  -5 1333.53  123.15
  -1  -5  -5 1307.73   47.67
  -1  -5  -5 1322.49   58.90
   1  -5   5 1357.40   49.97
  -1   5  -6 2512.32  138.22
   1   5   6 2431.04   94.30
  -1   5  -6 2272.67   88.06
  -1  -5  -6 2517.82   91.51
  -1  -5  -6 2562.39   96.49
   1  -5   6 2409.21   89.95
  -1   5  -7  195.17   34.73
   1   5   7  230.62   51.06
  -1   5  -7  219.29   19.43
  -1  -5  -7  187.67   26.67
  -1  -5  -7  207.44   28.99
   1  -5   7  202.00   27.97
   1   5   8   38.97   19.58
   1  -5   8   14.19    7.60
  -1  -5  -8    9.25    9.30
  -1  -5  -8   15.06    8.63
   1   5   9  406.93   60.64
  -1   5  -9  313.23   34.29
   1  -5   9  341.69   57.76
  -1  -5  -9  336.66   42.35
  -1  -5  -9  353.80   35.48
  -1   5 -10   52.97   14.04
   1   5  10   34.39   23.94
   1  -5  10   71.97   17.79
  -1   5 -11  298.36   40.16
   1   5  11  220.99   41.06
   1  -5  11  237.83   34.31
  -1   6  11  144.63   36.87
   1   6 -11  147.46   25.04
  -1  -6  11  171.26   34.47
   1  -6 -11  101.03   24.49
   1   6 -10 1402.37   71.83
  -1   6  10 1334.06  191.72
  -1  -6  10 1647.22   76.61
  -1   6   9  662.97  108.26
   1   6  -9  655.66   38.54
  -1  -6   9  678.20  107.74
   1  -6  -9  521.75   71.20
   1  -6  -9  498.16   76.30
   1   6  -8   62.92   18.52
   1  -6  -8  118.31   16.75
  -1  -6   8   93.70   15.54
   1  -6  -8   75.51   13.46
  -1   6   7 1275.93  106.56
  -1   6   7 1324.62   55.91
   1   6  -7 1269.47   66.77
   1   6  -7 1421.66  159.48
   1  -6  -7 1474.80   56.66
  -1  -6   7 1502.70   61.14
  -1   6   6  189.83   27.84
  -1   6   6  210.10   31.31
   1   6  -6  161.53   26.88
   1   6  -6  222.07   27.42
   1  -6  -6  180.79   20.41
  -1  -6   6  149.79   24.33
  -1   6   5 1178.30   46.67
  -1   6   5 1173.44   45.65
   1   6  -5 1216.88   88.67
   1   6  -5 1259.68  100.90
   1  -6  -5 1171.08   43.66
  -1  -6   5 1208.00   46.62
  -1   6   4  430.75   36.68
  -1   6   4  487.00   53.28
   1   6  -4  415.86   20.22
   1   6  -4  410.61   26.89
   1  -6  -4  421.64   67.56
  -1  -6   4  459.63   60.49
  -1   6   3 2704.20   61.93
  -1   6   3 2633.79   53.25
   1   6  -3 2647.83   56.90
   1   6  -3 2654.95   60.83
   1  -6  -3 2691.85   59.63
  -1  -6   3 2763.85   58.42
  -1   6   2  254.14   18.12
   1   6  -2  246.51   34.99
  -1   6   2  252.42   19.74
   1   6  -2  202.37   16.46
   1   6  -2  233.42   35.92
   1  -6  -2  268.05   39.90
  -1   6   1 1094.14   39.74
   1   6  -1 1129.26   43.67
  -1   6   1 1130.17   70.08
   1   6  -1 1065.23   57.01
  -1  -6   1 1062.84   43.05
   1  -6  -1 1043.04   45.10
   1   6   0 6738.66   92.21
  -1   6   0 6679.68   83.27
  -1   6   0 6632.10   98.93
   1   6   0 6744.24  100.16
  -1  -6   0 6783.65   94.06
   1  -6   0 6677.04   96.61
   1   6   1 7110.98  111.42
   1   6   1 7212.81   98.29
  -1   6  -1 7288.41  106.78
  -1  -6  -1 7225.92   97.24
   1  -6   1 7210.93  110.67
   1  -6   1 6992.47   88.71
   1   6   2 2012.03   49.20
   1   6   2 2014.84   45.57
  -1   6  -2 2042.92   49.87
  -1   6  -2 2023.03   51.09
  -1  -6  -2 2208.61   46.49
   1  -6   2 2164.70   42.72
   1   6   3 1687.96  127.39
   1   6   3 1632.50   50.19
  -1   6  -3 1675.84   43.33
  -1   6  -3 1738.08  150.57
  -1  -6  -3 1619.91   36.91
   1  -6   3 1592.63   35.88
   1   6   4 2489.66   73.03
   1   6   4 2402.50   72.05
  -1   6  -4 2389.42   68.57
  -1   6  -4 2387.12   73.50
  -1  -6  -4 2438.20   65.24
   1  -6   4 2506.00   67.25
  -1   6  -5 2496.53   90.90
   1   6   5 2532.12   98.59
  -1   6  -5 2388.53  101.81
  -1  -6  -5 2413.67   90.94
  -1  -6  -5 2353.47   89.60
   1  -6   5 2519.39   93.87
  -1   6  -6  931.12   79.50
   1   6   6 1074.20   46.33
  -1   6  -6 1015.20   90.25
  -1  -6  -6  862.15   84.65
  -1  -6  -6  949.14   40.26
   1  -6   6  984.73   45.77
  -1   6  -7 2370.50   74.21
   1   6   7 2321.78   83.63
  -1   6  -7 2387.89   82.46
  -1  -6  -7 2382.99   77.96
  -1  -6  -7 2522.73   94.54
   1  -6   7 2532.55   89.88
  -1   6  -8  133.23   25.20
   1   6   8  119.23   27.27
   1  -6   8  125.40   25.96
  -1  -6  -8  137.75   21.61
   1   6   9   48.88   23.81
  -1   6  -9   96.17   21.99
   1  -6   9   69.06   19.66
  -1  -6  -9   26.85    7.86
  -1  -6  -9   94.08   17.98
  -1   6 -10  317.42   68.28
   1   6  10  449.22   39.08
   1  -6  10  326.67  100.90
   1   7 -11   40.17   11.86
  -1   7  11   40.47   14.56
  -1  -7  11   -6.53   21.16
  -1   7  10  464.83   88.78
   1   7 -10  514.27   41.57
  -1  -7  10  459.30   73.96
   1  -7 -10  436.05   76.72
   1  -7 -10  374.40   51.65
  -1   7   9   82.91   16.73
   1   7  -9   48.14   14.77
  -1  -7   9   66.99   20.58
   1  -7  -9   50.42   16.27
   1  -7  -9   67.79   13.41
  -1   7   8  538.00   72.80
   1   7  -8  469.20   42.81
  -1  -7   8  499.94   83.95
   1  -7  -8  467.57   66.95
   1  -7  -8  451.53   63.67
  -1   7   7  690.43   59.85
  -1   7   7  781.43   64.88
   1   7  -7  588.85   52.85
   1   7  -7  732.52   64.43
   1  -7  -7  682.29   78.27
  -1  -7   7  739.92  101.71
  -1   7   6 3218.28   98.84
  -1   7   6 3319.31  102.11
   1   7  -6 3369.04   98.01
   1   7  -6 3352.75  106.49
   1  -7  -6 3506.50  104.97
  -1  -7   6 3516.18  105.33
  -1   7   5  168.15   15.03
  -1   7   5  229.58   24.95
   1   7  -5  170.88   17.16
   1   7  -5  231.28   25.74
   1  -7  -5  172.53   15.10
  -1  -7   5  190.21   25.71
  -1   7   4 4307.24  139.18
  -1   7   4 4182.88  142.21
   1   7  -4 4241.08  147.91
   1   7  -4 4255.75  144.26
   1  -7  -4 4434.14  140.23
  -1  -7   4 4383.73  138.66
  -1   7   3 2454.10   72.80
  -1   7   3 2499.75   67.18
   1   7  -3 2433.79   75.56
   1   7  -3 2508.45   71.99
   1  -7  -3 2619.96   72.77
  -1  -7   3 2551.54   79.21
  -1   7   2 2170.77   44.09
   1   7  -2 2194.57   47.54
  -1   7   2 2053.55   52.20
   1   7  -2 2186.03   53.42
   1   7  -2 2114.78   53.06
   1  -7  -2 2210.88   67.37
  -1   7   1   42.92    6.80
   1   7  -1   60.47    7.48
   1   7  -1   49.76    8.75
  -1   7   1   54.94   10.54
   1  -7  -1   35.52    5.43
   1   7   0  411.79   20.57
  -1   7   0  428.25   17.92
  -1   7   0  423.91   34.12
   1   7   0  413.08   25.52
  -1  -7   0  419.51   22.09
   1  -7   0  424.90   72.07
   1   7   1  382.91   37.74
   1   7   1  335.53   37.75
  -1   7  -1  384.58   34.93
  -1  -7  -1  336.71   51.69
   1  -7   1  306.62   48.05
   1  -7   1  297.70   24.67
   1   7   2 2587.84  183.18
   1   7   2 2602.42   76.02
  -1   7  -2 2569.28   73.68
  -1  -7  -2 2553.80   73.76
   1  -7   2 2603.09   78.11
   1  -7   2 2468.23   62.81
   1   7   3  352.51   38.39
   1   7   3  368.48   57.76
  -1   7  -3  407.81   36.73
  -1   7  -3  291.21   24.56
  -1  -7  -3  337.85   52.27
   1  -7   3  347.15   46.21
   1   7   4 1192.46   84.18
   1   7   4 1169.51   44.34
  -1   7  -4 1376.67  107.10
  -1   7  -4 1149.71   82.25
  -1  -7  -4 1182.07   26.16
   1  -7   4 1245.01   61.78
  -1   7  -5 2586.40   80.32
   1   7   5 2690.71   85.63
  -1   7  -5 2389.95  108.47
  -1  -7  -5 2540.74   80.15
  -1  -7  -5 2697.94   89.02
   1  -7   5 2621.10   92.21
  -1   7  -6 1905.27   81.69
   1   7   6 1978.19   75.94
  -1   7  -6 2015.53  149.35
  -1  -7  -6 1927.78   62.40
  -1  -7  -6 2029.74   73.38
   1  -7   6 1984.61   69.63
  -1   7  -7 1236.91   86.07
   1   7   7 1381.46   71.24
  -1   7  -7 1258.20  119.66
  -1  -7  -7 1360.93   67.38
  -1  -7  -7 1292.93  172.23
   1  -7   7 1386.80   67.21
   1   7   8   18.16   14.34
  -1   7  -8   -7.08   21.99
   1  -7   8   11.85    5.77
  -1  -7  -8   -2.30    7.10
  -1  -7  -8   29.36    6.90
  -1   7  -9  404.48   53.24
   1   7   9  444.38   67.04
   1  -7   9  359.60   57.00
  -1  -7  -9  397.93   67.87
  -1   7 -10  251.44   40.13
   1   7  10  277.44   44.08
   1  -7  10  216.21   44.87
  -1   8  10  295.60   57.94
   1   8 -10  158.97   37.66
  -1  -8  10  145.97   31.40
   1  -8 -10  137.17   35.77
   1  -8 -10  136.66   28.46
  -1   8   9  156.32   34.13
   1   8  -9  179.46   32.03
  -1  -8   9  133.66   27.72
   1  -8  -9   94.40   22.23
   1  -8  -9  141.07   28.87
  -1   8   8   22.16   14.47
   1   8  -8   40.69   16.28
  -1  -8   8   33.28   16.61
   1  -8  -8   25.19   12.16
   1  -8  -8    0.04   15.41
  -1   8   7  549.60   55.14
  -1   8   7  549.61   89.08
   1   8  -7  503.59   51.01
   1   8  -7  558.57   41.95
   1  -8  -7  525.50   66.36
  -1  -8   7  510.27   71.67
   1   8  -6   82.65   10.98
   1   8  -6   67.83    8.30
  -1   8   6   99.62   15.65
   1  -8  -6  106.18   16.60
  -1  -8   6   81.84   11.65
  -1   8   5 1355.35   97.80
  -1   8   5 1348.29   48.61
   1   8  -5 1367.85   48.65
   1   8  -5 1480.65   96.58
   1  -8  -5 1429.24   51.93
  -1  -8   5 1364.39   62.55
  -1   8   4  744.89   49.20
  -1   8   4  731.61   42.20
   1   8  -4  670.39   49.02
   1   8  -4  744.25   65.55
   1  -8  -4  607.16   90.30
  -1  -8   4  781.88   38.18
   1   8  -3 1024.69   75.49
  -1   8   3  986.31   30.42
  -1   8   3 1016.45   84.32
   1   8  -3  979.22   39.40
   1  -8  -3  980.15   66.37
  -1  -8   3  972.02   38.70
  -1   8   2  210.32   21.22
   1   8  -2  236.84   18.10
  -1   8   2  214.83   23.02
   1   8  -2  186.26   19.52
  -1  -8   2  236.50   37.28
   1  -8  -2  235.19   41.17
  -1   8   1 1164.81   33.04
   1   8  -1 1151.31   36.12
  -1   8   1 1136.60   43.05
   1   8  -1 1198.57   47.33
  -1  -8   1 1141.07   60.56
   1  -8  -1 1209.43   41.64
   1   8   0  488.86   20.43
  -1   8   0  439.78   15.31
  -1   8   0  438.91   25.27
   1   8   0  508.21   51.77
  -1  -8   0  478.89   45.92
   1  -8   0  479.66   69.26
   1   8   1  409.78   33.37
   1   8   1  384.17   19.59
  -1   8  -1  416.37   47.54
  -1  -8  -1  372.94   52.08
   1  -8   1  399.06   49.71
   1  -8   1  353.58   20.25
   1   8   2 2021.20  150.75
   1   8   2 2054.92   69.96
  -1   8  -2 1987.86   72.82
  -1  -8  -2 2093.18   70.28
   1  -8   2 1945.43   80.77
   1  -8   2 1931.89   64.68
   1   8   3 1280.91   58.28
   1   8   3 1360.68   57.28
  -1   8  -3 1300.56   57.33
  -1  -8  -3 1360.84   73.73
   1  -8   3 1345.12   59.57
   1  -8   3 1330.09   50.62
   1   8   4  770.79   72.59
   1   8   4  691.25   36.71
  -1   8  -4  697.03   28.02
  -1   8  -4  776.10   71.05
  -1  -8  -4  692.89   21.79
   1  -8   4  653.97   57.91
  -1   8  -5 2070.29   69.22
   1   8   5 1994.08   69.95
  -1   8  -5 1968.33  171.04
   1  -8   5 2099.82   66.46
  -1  -8  -5 1975.95   72.94
  -1   8  -6   95.50   15.44
   1   8   6  119.13   21.02
  -1   8  -6   89.35   19.94
  -1  -8  -6  113.71   18.52
  -1  -8  -6   90.84   15.83
   1  -8   6  120.80   23.02
  -1   8  -7  324.15   37.04
   1   8   7  358.96   49.69
  -1   8  -7  376.92   38.82
  -1  -8  -7  246.05   46.07
  -1  -8  -7  438.06   47.67
   1  -8   7  365.63   44.07
  -1   8  -8  110.33   24.02
   1   8   8  101.33   20.11
   1  -8   8  149.38   30.74
  -1  -8  -8  162.72   28.54
  -1   8  -9   48.28   26.84
   1   8   9   22.92    7.91
   1  -8   9   33.73   12.07
  -1  -8  -9   33.92   15.03
   1   9 -10   66.70   20.42
  -1   9  10   -5.88   17.81
  -1  -9  10   38.52   14.56
  -1   9   9  122.04   28.28
   1   9  -9  131.24   31.85
  -1  -9   9   97.75   33.48
   1  -9  -9  101.04   22.60
   1  -9  -9  135.31   29.93
  -1   9   8  450.89   77.23
   1   9  -8  487.34   47.46
  -1  -9   8  395.71   59.91
   1  -9  -8  355.81   54.73
  -1   9   7  -17.49   16.86
  -1   9   7   24.07   15.19
   1   9  -7   11.11    5.35
   1   9  -7   22.69    9.55
   1  -9  -7   10.18    7.97
  -1  -9   7    8.41    6.32
  -1   9   6  767.85   70.18
  -1   9   6  727.75  103.94
   1   9  -6  668.39   56.55
   1   9  -6  805.08   51.18
   1  -9  -6  632.84   92.33
  -1  -9   6  708.38   89.38
   1   9  -5   78.21    8.76
  -1   9   5   75.04   12.26
   1   9  -5   99.60   18.24
  -1  -9   5   91.01   13.92
   1  -9  -5   80.34   13.91
  -1   9   4 3145.87  111.37
  -1   9   4 3058.75   99.83
   1   9  -4 3341.38  173.16
   1   9  -4 3082.45  107.50
   1  -9  -4 3131.52  107.67
  -1  -9   4 3141.30  103.12
   1   9  -3 1152.18   44.81
  -1   9   3 1126.33   37.86
  -1   9   3 1192.70  112.09
   1   9  -3 1283.45  115.90
   1  -9  -3 1149.70   58.68
  -1  -9   3 1143.16   50.21
  -1   9   2  528.15   37.17
   1   9  -2  505.59   23.88
  -1   9   2  476.19   38.38
   1   9  -2  508.00   47.36
  -1  -9   2  490.47   96.63
   1  -9  -2  459.73   70.57
  -1   9   1  903.98   31.06
   1   9  -1  972.96   36.83
  -1   9   1  908.27   42.49
   1   9  -1  941.70   95.62
  -1  -9   1  985.12   42.08
   1  -9  -1 1013.75   42.21
   1   9   0 1964.76  116.19
  -1   9   0 1617.03   92.28
   1   9   0 1784.24  150.58
  -1  -9   0 1646.49   64.56
   1  -9   0 1813.17   75.48
   1   9   1  800.35   44.19
  -1   9  -1  686.13   39.72
   1   9   1  777.53   57.39
   1  -9   1  790.51   87.68
  -1  -9  -1  770.13   97.50
   1   9   2  431.64   51.43
   1   9   2  413.75   19.19
  -1   9  -2  427.67   37.83
  -1  -9  -2  390.26   60.63
   1  -9   2  365.24   56.43
   1  -9   2  334.84   22.54
   1   9   3  269.05   34.29
   1   9   3  270.79   23.31
  -1   9  -3  307.75   26.44
  -1  -9  -3  318.06   45.14
   1  -9   3  245.78   53.08
   1  -9   3  263.99   24.65
   1   9   4 2928.05   96.67
   1   9   4 2905.36   89.81
  -1   9  -4 2649.44   87.07
   1  -9   4 2826.20   83.97
  -1  -9  -4 3101.86   92.97
   1   9   5  496.65   49.77
   1   9   5  552.22   79.03
  -1   9  -5  545.54   50.83
  -1   9  -5  421.61   32.17
  -1  -9  -5  398.90   59.29
   1  -9   5  368.76   62.41
  -1   9  -6  238.43   36.05
   1   9   6  228.15   32.38
  -1   9  -6  279.39   41.41
  -1  -9  -6  161.03   26.81
  -1  -9  -6  239.51   42.35
   1  -9   6  208.74   37.38
  -1   9  -7  340.59   36.05
   1   9   7  324.48   51.20
  -1   9  -7  282.25   43.58
  -1  -9  -7  272.54   48.38
   1  -9   7  312.03   49.57
  -1   9  -8  134.14   32.43
   1   9   8  145.25   31.30
   1  -9   8  105.29   26.68
  -1  -9  -8  123.01   26.42
   1   9   9   88.66   26.63
  -1   9  -9   97.26   30.25
  -1  -9  -9   74.04   21.29
   1  10  -9   74.22   37.60
  -1  10   9   54.21   20.79
  -1 -10   9   36.42   14.39
   1 -10  -9   51.04   21.45
  -1  10   8   92.71   24.97
   1  10  -8  110.95   24.40
  -1 -10   8   84.40   17.16
   1 -10  -8   60.38   20.99
  -1  10   7  427.27   43.43
  -1  10   7  414.65   57.88
   1  10  -7  480.71   63.41
  -1 -10   7  398.08   51.34
   1 -10  -7  404.72   71.17
  -1  10   6   51.62   14.64
  -1  10   6   29.89    8.80
   1  10  -6   26.61   12.01
  -1 -10   6    3.36    7.79
   1 -10  -6   12.07   15.42
  -1  10   5  435.34   29.85
  -1  10   5  385.39   63.46
   1  10  -5  440.94   50.99
   1  10  -5  475.92   43.09
   1 -10  -5  365.70   58.61
  -1 -10   5  384.73   50.81
  -1  10   4  292.48   47.34
  -1  10   4  219.06   23.32
   1  10  -4  305.04   32.31
   1  10  -4  279.09   29.51
   1 -10  -4  249.80   32.44
  -1 -10   4  234.68   30.65
  -1  10   3  145.68   23.00
  -1  10   3  156.66   20.93
   1  10  -3  182.09   16.05
   1 -10  -3  204.30   28.59
  -1 -10   3  216.24   29.14
  -1 -10   3  187.02   28.57
   1  10  -2 2340.09  114.23
   1  10  -2 2351.61   85.36
  -1  10   2 2318.58   86.66
  -1 -10   2 2592.50   91.07
   1 -10  -2 2469.43  111.01
   1  10  -1 1931.15   65.95
  -1  10   1 1989.68   79.86
   1  10  -1 1881.69   84.31
  -1 -10   1 2012.43   72.88
   1 -10  -1 1948.48   72.80
   1  10   0   38.32    8.14
  -1  10   0   46.90   10.51
   1  10   0   28.06    7.32
  -1 -10   0   39.19   10.36
   1 -10   0   30.23   12.19
   1  10   1 1471.74   53.15
  -1  10  -1 1541.66   66.16
   1  10   1 1529.57  138.29
   1 -10   1 1573.60   69.09
  -1 -10  -1 1583.88   59.89
   1  10   2 1858.57   59.95
  -1  10  -2 1901.23   70.25
   1  10   2 1930.73  153.98
   1 -10   2 1936.74   87.97
  -1 -10  -2 1910.47   63.01
   1  10   3  828.97   56.03
  -1  10  -3  789.90   66.89
   1  10   3  740.39   58.61
   1 -10   3  757.57  102.79
  -1 -10  -3  890.00  107.41
   1  10   4 1838.84   88.06
  -1  10  -4 1770.69   85.50
   1  10   4 1812.54  194.69
   1 -10   4 1945.84  100.11
  -1 -10  -4 1700.05   82.44
   1  10   5  249.57   33.33
  -1  10  -5  270.13   36.22
   1  10   5  305.62   43.84
   1 -10   5  219.89   42.66
  -1 -10  -5  163.05   29.74
   1  10   6   39.74   11.64
  -1  10  -6   28.77   22.51
  -1 -10  -6   44.45   12.83
   1  10   7  221.45   25.72
  -1  10  -7  284.03   26.29
  -1 -10  -7  261.40   52.85
   1  10   8  143.47   28.95
  -1  10  -8  127.97   23.90
  -1 -10  -8  129.79   20.34
   1  11  -8  231.93   38.25
  -1  11   7  371.46   32.14
   1  11  -7  345.00   33.35
   1 -11  -7  237.45   39.21
   1  11  -6  306.50   31.91
   1  11  -6  438.04   62.47
  -1  11   6  407.84   46.90
   1 -11  -6  387.57   66.85
   1  11  -5    6.87   10.61
   1  11  -5   53.94   18.76
  -1  11   5    8.34   20.45
   1 -11  -5   24.01    8.62
  -1 -11   5   51.05    7.43
  -1  11   4  456.15   31.58
   1  11  -4  437.57   26.98
  -1 -11   4  320.37   58.41
  -1 -11   4  456.06   69.25
   1 -11  -4  389.06   61.21
   1  11  -3  463.61   42.18
  -1  11   3  479.50   43.55
  -1 -11   3  375.29   42.10
  -1 -11   3  469.26   71.42
   1 -11  -3  413.25   65.30
   1  11  -2  582.34   77.69
  -1  11   2  714.91   56.22
   1  11  -2  719.41   89.17
  -1 -11   2  718.95  116.99
   1 -11  -2  754.54   96.45
   1  11  -1  313.33   45.52
  -1  11   1  339.78   39.42
   1  11  -1  338.94   32.10
  -1 -11   1  339.77   56.53
   1 -11  -1  339.80   50.14
   1  11   0  681.38   37.57
  -1  11   0  713.65   70.11
   1  11   0  791.03  109.31
  -1 -11   0  686.28   86.35
   1 -11   0  760.38  109.26
   1  11   1  196.89   22.81
  -1  11  -1  218.66   32.01
   1  11   1  214.18   25.08
   1 -11   1  220.76   36.87
  -1 -11  -1  276.45   34.15
   1  11   2  842.40   72.12
  -1  11  -2  935.49   55.55
   1  11   2  913.71   53.48
   1 -11   2  973.59  149.46
  -1 -11  -2  916.01   85.38
   1  11   3  377.60   26.85
  -1  11  -3  416.66   37.39
   1  11   3  443.24   34.22
   1 -11   3  413.71   68.67
  -1 -11  -3  401.52   46.32
   1  11   4 1075.57   40.05
  -1  11  -4 1038.43  105.80
   1  11   4 1120.27  151.87
   1 -11   4 1219.51   55.06
  -1 -11  -4 1060.85   40.30
   1  11   5  396.19   48.84
   1  11   5  476.88   45.44
  -1  11  -5  462.77   33.33
   1 -11   5  505.26   75.68
   1  11   6  284.07   39.97
  -1  11  -6  289.07   24.46
  -1 -11  -6  254.26   37.88
   1 -11   6  289.19   51.33
   1  11   7  121.03   24.47
  -1 -11  -7   93.95   31.75
   1  12  -7  412.32   36.56
  -1  12   7  284.43   46.38
   1  12  -6  670.83   77.89
  -1  12   6  778.77   52.64
  -1 -12   6  696.60  148.16
   1 -12  -6  532.75   99.47
   1  12  -5  181.48   28.46
  -1  12   5  186.17   38.58
  -1 -12   5  215.50   44.43
   1 -12  -5  195.94   42.67
   1  12  -4   34.50   13.90
  -1  12   4   56.01   22.38
  -1 -12   4   32.73   11.46
   1 -12  -4   68.97   12.34
   1  12  -3   52.94   18.78
  -1  12   3   17.54    9.86
  -1 -12   3   25.23   10.08
   1 -12  -3   20.54   11.64
  -1  12   2  991.41   50.24
   1  12  -2 1096.23   78.86
  -1 -12   2  953.96  132.92
   1 -12  -2  966.32  131.89
  -1  12   1  784.49   41.96
   1  12  -1  820.05   40.99
  -1 -12   1  726.26  112.27
   1 -12  -1  726.71  102.31
  -1  12   0   90.17   16.07
   1  12   0  100.84   14.27
   1 -12   0  104.55   18.72
  -1 -12   0   79.12   13.05
  -1  12  -1  641.63   72.32
   1  12   1  587.24   51.57
   1 -12   1  759.11  107.18
  -1 -12  -1  582.46   82.27
  -1  12  -2  603.31   37.73
   1  12   2  549.15   35.96
   1 -12   2  659.37   92.62
  -1 -12  -2  591.72   77.68
   1  12   3   21.42   10.03
  -1  12  -3   -1.48    8.42
   1  12   3    2.79   10.24
   1 -12   3   45.07   15.73
  -1 -12  -3   14.39   14.17
   1  12   4  530.22   75.42
   1  12   4  598.88   56.42
  -1  12  -4  581.68   63.83
   1 -12   4  666.65   86.98
   1  12   5  278.80   53.70
   1  12   5  273.13   31.16
  -1  12  -5  271.44   29.92
   1 -12   5  337.06   59.39
  -1  12  -6  351.47   62.67
  -1 -12  -6  309.29   74.48
   1 -12   6  354.99   57.42
  -1  13   6  947.08  107.87
  -1 -13   6  953.88  178.71
  -1  13   5   47.02   26.92
   1  13  -5   45.19   17.26
  -1 -13   5   81.16   29.88
   1 -13  -5   14.45   11.41
  -1  13   4  112.66   28.73
   1  13  -4  183.45   36.83
  -1 -13   4  136.35   30.19
   1 -13  -4   97.81   22.73
   1  13  -3  594.61   47.83
  -1  13   3  594.54   74.33
  -1 -13   3  547.27  101.14
   1 -13  -3  477.07   94.36
  -1  13   2  683.41   61.22
   1  13  -2  599.27   62.60
  -1 -13   2  751.57  124.54
   1 -13  -2  702.77   97.52
  -1  13   1   44.12   22.23
   1  13  -1   56.74   12.50
  -1 -13   1   63.67   19.55
   1 -13  -1   72.64   16.50
  -1  13   0   87.00   24.25
   1  13   0   91.98   28.60
   1 -13   0  114.53   28.47
  -1 -13   0  116.24   21.00
  -1  13  -1   98.65   21.32
   1  13   1  105.11   28.83
   1 -13   1   97.36   20.33
  -1 -13  -1  112.43   23.25
  -1  13  -2  216.82   32.13
   1  13   2  225.07   24.69
   1 -13   2  200.54   34.15
  -1 -13  -2  177.39   38.45
   1  13   3  125.31   30.58
  -1  13  -3  118.49   35.40
   1 -13   3  189.13   48.54
   1  13   4   72.02   21.30
  -1  13  -4  101.25   28.07
   1 -13   4  159.52   41.50
   1  13   5  154.07   35.71
  -1  13  -5  209.41   36.02
   1 -13   5  217.41   40.86
   1  14  -4  144.97   40.43
  -1  14   4  195.36   30.24
  -1 -14   4  202.40   44.95
   1 -14  -4  164.86   39.61
   1  14  -3  128.19   22.57
  -1  14   3  124.64   22.19
  -1 -14   3   73.58   26.39
   1 -14  -3  106.93   25.92
   1  14  -2   76.52   24.54
  -1  14   2   70.26   28.67
  -1 -14   2   59.28   20.98
   1 -14  -2   84.34   31.19
  -1  14   1  174.36   44.50
   1  14  -1  116.73   39.11
  -1 -14   1  131.90   31.13
   1 -14  -1  119.30   32.09
  -1  14   0   19.41   21.03
   1  14   0  -21.90   19.63
   1 -14   0   12.43   10.82
  -1 -14   0   -5.01   16.73
  -1  14  -1  186.11   35.95
   1  14   1  115.10   35.19
   1 -14   1  188.97   40.57
  -1 -14  -1  128.52   32.56
   1  14   2  451.00   73.38
  -1  14  -2  386.32   40.70
   1 -14   2  447.71   62.32
   1  14   3   50.70   16.30
  -1  14  -3   11.10    6.15
   1 -14   3   63.51   17.91
  -2   0  12  487.15   87.91
   2   0 -12  516.56   53.69
  -2   0  11  119.65   23.43
   2   0 -11   84.67   20.47
  -2   0  10 3052.09  137.67
   2   0 -10 2975.61  134.51
  -2   0   9 8489.07  265.28
   2   0  -9 8765.76  273.15
  -2   0   8 2483.64   93.96
   2   0  -8 2477.15  100.21
  -2   0   7   14.71    6.92
   2   0  -7   -8.63   13.87
  -2   0   6  491.41   69.81
   2   0  -6  549.14   56.41
  -2   0   5  868.12   37.27
   2   0  -5  805.33   36.47
   2   0  -5  829.48   28.92
  -2   0   4 2722.95   73.48
   2   0  -4 2771.61   74.51
  -2   0   4 2755.36   66.99
  -2   0   3 2067.81   55.67
   2   0  -3 2050.42   54.98
  -2   0   3 2107.26   52.19
   2   0  -2 2735.06   69.62
   2   0  -2 2835.18   72.28
  -2   0   2 2782.66   69.58
   2   0  -134043.70  385.67
   2   0  -133120.85  374.51
  -2   0   133800.73  382.66
   2   0   014833.17  172.75
   2   0   014448.28  167.26
  -2   0   014864.24  174.60
   2   0   1 3877.48   97.57
  -2   0  -1 3905.85   96.14
  -2   0  -1 3889.77   98.10
   2   0   2 6813.09   90.58
  -2   0  -2 6812.71   85.35
  -2   0  -2 6706.31   89.94
   2   0   3  403.61   54.70
  -2   0  -3  401.00   35.22
  -2   0  -3  383.18   19.26
   2   0   4 3278.61   59.27
  -2   0  -4 3145.77  113.25
  -2   0  -4 3107.54  112.34
   2   0   5  652.64   33.79
  -2   0  -5  658.87   68.08
  -2   0  -5  598.94   28.06
   2   0   6 2896.16   98.79
  -2   0  -6 2665.88   96.07
  -2   0  -6 2901.53   96.33
   2   0   7  -20.28   20.39
  -2   0  -7   -9.97   12.60
  -2   0  -7   28.67    9.19
   2   0   8  163.11   22.21
  -2   0  -8  150.90   15.33
  -2   0  -8  145.54   15.49
   2   0   9  212.85   41.83
  -2   0  -9  254.87   40.78
  -2   0  -9  234.44   22.95
   2   0  10 1049.36  113.69
  -2   0 -10  766.67  105.47
   2   0  11  501.30   78.74
  -2   0 -11  393.41   65.37
  -2   1  12   -9.46   24.99
   2   1 -12   41.08   23.27
  -2  -1  12   17.94   12.96
   2  -1 -12   38.17   19.36
  -2   1  11  167.18   29.96
   2   1 -11   86.06   20.50
  -2  -1  11  206.66   41.65
   2  -1 -11  142.57   26.43
  -2   1  10  152.80   19.57
   2   1 -10  119.22   20.23
   2  -1 -10  153.76   20.52
  -2  -1  10  154.19   24.12
  -2   1   9  274.86   29.49
   2   1  -9  278.54   27.81
  -2  -1   9  239.76   38.52
   2  -1  -9  254.24   21.43
  -2   1   8 2881.02  118.44
   2   1  -8 2942.28  209.59
  -2  -1   8 2935.31  109.45
   2  -1  -8 2846.06  105.18
  -2   1   7   84.34   11.65
   2   1  -7   72.78   13.12
  -2  -1   7   76.00   13.69
   2  -1  -7   77.06   16.14
   2  -1  -7   56.10    8.52
  -2   1   6  332.12   49.39
   2   1  -6  316.46   20.73
  -2  -1   6  322.35   54.17
   2  -1  -6  363.63   41.28
   2  -1  -6  321.05   22.95
  -2   1   5 1423.02   50.93
  -2   1   5 1467.84   57.64
   2   1  -5 1425.39   56.12
  -2  -1   5 1407.80   55.53
   2  -1  -5 1291.04   55.53
  -2   1   411142.33  130.91
  -2   1   410890.35  139.93
   2   1  -411068.93  141.76
  -2  -1   411336.39  143.55
   2  -1  -411002.60  139.40
  -2   1   3 5708.46   70.62
  -2   1   3 5657.65   74.48
   2   1  -3 5620.19   75.62
   2  -1  -3 5876.82   78.04
  -2  -1   3 5726.49   66.64
  -2  -1   3 5778.53   78.22
  -2   1   249619.78  559.23
   2   1  -248882.08  553.30
   2   1  -248691.57  549.95
  -2   1   248373.83  544.58
  -2  -1   247899.17  537.00
   2   1  -110410.43  125.26
   2   1  -110609.17  123.27
  -2   1   110475.85  131.81
   2  -1  -110430.54  125.67
  -2  -1   110291.26  124.79
   2  -1  -110548.13  122.80
   2   1   011563.01  130.49
   2   1   011371.20  135.38
  -2   1   011366.40  137.03
  -2  -1   011197.84  126.42
   2  -1   011200.83  130.43
  -2  -1   011277.47  135.36
   2  -1   011250.80  133.19
   2   1   114372.51  162.79
   2   1   113975.32  168.02
  -2   1  -113995.50  165.05
  -2   1  -114171.61  169.01
  -2  -1  -114396.66  163.04
  -2  -1  -114190.15  169.52
   2  -1   114090.38  165.59
  -2   1  -2 6277.40   84.53
   2   1   2 6371.67   86.78
  -2   1  -2 6154.47   80.70
  -2  -1  -2 6331.05   77.61
  -2  -1  -2 6168.38   82.96
   2  -1   2 6258.05   82.35
  -2   1  -326284.43  318.03
   2   1   326199.18  321.13
  -2   1  -326442.62  326.99
  -2  -1  -326649.19  317.48
  -2  -1  -326416.67  320.80
   2  -1   326489.65  321.28
  -2   1  -4 3864.07   62.60
  -2   1  -4 3835.26   60.98
   2  -1   4 3836.65   64.79
  -2  -1  -4 3733.66   57.45
   2   1   5   69.02   12.94
  -2   1  -5   46.40   15.27
  -2   1  -5   87.48    8.42
  -2  -1  -5   65.97   10.46
  -2  -1  -5   58.58    7.37
   2  -1   5   58.25   10.42
  -2   1  -6 6034.50  185.81
   2   1   6 5879.84  188.98
  -2   1  -6 6117.48  190.73
  -2  -1  -6 6049.42  187.22
  -2  -1  -6 5962.91  184.13
   2  -1   6 5942.22  191.75
   2   1   7  438.91   47.70
  -2   1  -7  417.70   36.71
  -2   1  -7  471.90   37.64
  -2  -1  -7  382.41   37.60
  -2  -1  -7  451.34   58.11
   2  -1   7  436.60   51.49
  -2   1  -8  303.97   33.05
   2   1   8  311.13   46.13
  -2   1  -8  276.21   45.13
  -2  -1  -8  311.12   34.17
  -2  -1  -8  341.00   34.94
   2  -1   8  286.91   46.48
   2   1   9  139.69   28.08
  -2   1  -9  147.46   22.68
  -2  -1  -9   95.97   14.34
   2  -1   9   89.49   24.18
  -2  -1  -9   98.84   13.83
   2   1  10  367.13   79.53
  -2   1 -10  345.24   40.86
   2  -1  10  337.46   53.04
  -2  -1 -10  322.02   59.17
  -2   1 -11   11.16   21.15
   2   1  11    0.10   19.98
   2  -1  11   27.81   18.60
  -2   2  12  312.64   71.34
   2   2 -12  319.22   60.56
  -2  -2  12  215.49   48.50
   2  -2 -12  211.95   48.27
  -2   2  11  315.40   47.16
   2   2 -11  259.38   40.01
  -2  -2  11  264.02   42.40
   2  -2 -11  224.21   23.69
  -2   2  10  728.13   98.36
   2   2 -10  731.30   90.11
  -2  -2  10  713.95   89.65
   2  -2 -10  693.38   43.36
  -2   2   9 3364.30  112.09
   2   2  -9 3288.58  260.42
  -2  -2   9 3303.39  104.53
   2  -2  -9 3444.23  109.19
  -2   2   8 5153.45  193.39
   2   2  -8 4999.54  176.83
  -2  -2   8 5045.60  180.17
   2  -2  -8 5098.54  179.37
   2  -2  -8 4838.36  162.97
  -2   2   7  610.92   32.03
   2   2  -7  629.33   29.64
  -2  -2   7  616.59   85.55
   2  -2  -7  744.00   71.85
   2  -2  -7  629.42   31.21
  -2   2   6  970.91   37.70
  -2   2   6 1019.52   45.09
   2   2  -6 1015.69  109.79
  -2  -2   6  902.09   41.23
   2  -2  -6  948.98   42.58
  -2   2   5  942.69   73.59
  -2   2   5  955.53   39.64
   2   2  -5 1054.94   85.30
  -2  -2   5  945.92   40.51
   2  -2  -5  877.48   38.31
  -2   2   4 5505.28   72.18
  -2   2   4 5405.44   75.45
   2   2  -4 5504.42   79.98
   2  -2  -4 5527.82   78.98
  -2  -2   4 5482.66   63.86
  -2  -2   4 5686.05   81.88
  -2   2   315730.12  185.50
  -2   2   315481.98  182.93
   2   2  -315834.05  190.73
   2  -2  -315741.13  189.51
  -2  -2   315399.40  176.18
  -2  -2   315749.19  190.95
  -2   2   265913.17 2217.63
   2   2  -264718.33  730.51
   2   2  -266678.80 2244.50
  -2   2   265791.80 2214.83
   2  -2  -262409.19  705.44
  -2  -2   265938.98 2218.65
   2   2  -143165.45  489.85
  -2   2   143321.12  484.97
   2   2  -143269.72  486.40
  -2   2   142273.47  480.24
   2  -2  -141832.38  474.92
  -2  -2   142735.34  483.62
   2  -2  -142171.86  471.76
   2   2   014141.71  159.11
   2   2   014324.00  170.02
  -2   2   013854.14  165.58
  -2  -2   014502.17  163.12
   2  -2   014283.03  162.52
  -2  -2   014432.07  171.85
   2  -2   014372.07  171.40
  -2   2  -1 8844.04  117.48
   2   2   1 8910.96  111.76
   2  -2   1 8731.60  114.12
  -2  -2  -1 9045.77  101.71
  -2  -2  -1 8745.08  118.25
   2  -2   1 8769.81  105.03
  -2   2  -211417.96  142.02
   2   2   211591.50  145.38
  -2   2  -211512.45  143.61
  -2  -2  -211648.73  135.03
  -2  -2  -211728.74  146.72
   2  -2   211445.50  145.54
  -2   2  -3 2849.93  104.48
  -2   2  -3 2887.77  106.55
  -2  -2  -3 2842.22   98.98
  -2  -2  -3 2813.29  101.37
  -2   2  -4 1654.61   53.19
   2   2   4 1689.00   45.84
  -2   2  -4 1631.71   43.88
  -2  -2  -4 1654.77   36.42
  -2  -2  -4 1739.50  114.00
   2  -2   4 1799.55   44.30
  -2   2  -5 1905.86   54.50
   2   2   5 1913.47  102.82
  -2   2  -5 1964.33   60.02
  -2  -2  -5 1900.64   53.41
  -2  -2  -5 1878.48   60.12
   2  -2   5 1959.10   59.21
  -2   2  -6  406.68   51.77
   2   2   6  358.80   25.90
  -2   2  -6  357.77   29.01
  -2  -2  -6  341.77   34.93
  -2  -2  -6  408.30   47.07
   2  -2   6  369.20   49.75
  -2   2  -7 2093.87   71.69
   2   2   7 1994.30   77.45
  -2   2  -7 2028.00  162.05
  -2  -2  -7 2017.06   71.66
  -2  -2  -7 1920.90   96.91
   2  -2   7 2019.33   75.27
  -2   2  -8  263.13   36.63
   2   2   8  289.21   40.52
  -2   2  -8  347.62   37.57
  -2  -2  -8  221.01   28.17
  -2  -2  -8  260.72   29.49
   2  -2   8  191.62   30.08
   2   2   9  228.48   43.56
  -2   2  -9  187.44   23.40
   2  -2   9  264.86   29.38
  -2  -2  -9  207.77   35.89
  -2  -2  -9  190.73   22.13
   2   2  10  317.29   45.26
  -2   2 -10  327.01   47.77
   2  -2  10  405.64   59.81
  -2  -2 -10  273.25   46.42
  -2   2 -11  812.32  131.92
   2   2  11 1036.52  186.37
   2  -2  11 1045.43  189.23
  -2   3  12  873.30  123.54
   2   3 -12  922.26  115.33
  -2  -3  12  839.94   99.83
   2  -3 -12  766.87   96.21
  -2   3  11  157.86   30.58
   2   3 -11   50.38   16.23
  -2  -3  11   83.11   16.17
   2  -3 -11  114.71   21.40
  -2   3  10  275.17   52.86
   2   3 -10  374.08   53.38
  -2  -3  10  340.98   38.87
   2  -3 -10  232.78   35.76
  -2   3   9 1798.74   69.36
   2   3  -9 1674.13  142.95
  -2  -3   9 1634.23   61.50
   2  -3  -9 1613.96   61.61
  -2   3   8 2761.24  142.25
   2   3  -8 2703.80  214.82
  -2  -3   8 2871.46   93.53
   2  -3  -8 2742.19   90.27
   2  -3  -8 2533.84   85.78
  -2   3   7 2747.63  104.68
   2   3  -7 2717.68   94.06
  -2  -3   7 2778.45   95.65
   2  -3  -7 2672.33   90.95
  -2   3   6  518.46   24.57
  -2   3   6  580.39   74.76
   2   3  -6  417.57   25.37
  -2  -3   6  524.99   76.82
   2  -3  -6  520.02   54.58
   2   3  -5  668.57   24.46
  -2   3   5  709.82   31.12
  -2   3   5  651.85   28.16
   2   3  -5  734.47   75.10
   2  -3  -5  704.94   74.43
  -2  -3   5  721.32   67.02
   2   3  -4 7385.22   93.74
  -2   3   4 7491.43  101.35
  -2   3   4 7615.54  102.29
   2   3  -4 7509.81  106.01
   2  -3  -4 7537.53  109.72
  -2  -3   4 7261.94  107.79
  -2   3   3 1678.29   45.87
   2   3  -3 1627.86   47.14
  -2   3   3 1648.52   46.54
   2   3  -3 1613.19   47.56
   2   3  -3 1646.20   44.78
   2  -3  -3 1665.43   48.86
  -2   3   222911.23  260.66
   2   3  -223189.80  272.17
  -2   3   223303.98  273.73
   2   3  -223224.25  270.29
   2   3  -223148.70  268.22
   2  -3  -223355.70  273.48
  -2   3   110909.88  123.16
  -2   3   110820.95  122.29
  -2   3   110725.47  133.60
   2   3  -111071.58  131.41
   2  -3  -110871.01  134.08
  -2   3   010615.96  120.13
  -2   3   010856.58  135.48
   2   3   010895.39  133.85
  -2  -3   010727.94  124.44
   2  -3   011082.48  137.96
  -2  -3   011121.68  137.56
   2  -3   010937.50  123.52
  -2   3  -1 3947.79  101.95
   2   3   1 4121.82  144.15
   2  -3   1 4013.64  140.86
  -2  -3  -1 3963.56   95.90
  -2  -3  -1 3847.00  103.96
   2  -3   1 3989.56  136.30
  -2   3  -2 9447.48  122.53
   2   3   2 9327.47  121.81
  -2   3  -2 9463.70  123.14
  -2  -3  -2 9246.73  108.75
  -2  -3  -2 9178.31  120.53
   2  -3   2 9096.20  116.90
   2   3   3  339.02   48.59
  -2   3  -3  400.31   38.88
  -2   3  -3  334.22   18.54
  -2  -3  -3  338.49   23.35
  -2  -3  -3  325.33   49.71
  -2   3  -4  668.01   30.62
   2   3   4  658.20   35.66
  -2   3  -4  778.09   71.06
  -2  -3  -4  770.81   55.92
  -2  -3  -4  773.35   35.70
   2  -3   4  721.83   32.96
  -2   3  -5  494.44   56.56
   2   3   5  482.70   70.94
  -2   3  -5  486.72   44.17
  -2  -3  -5  441.97   40.71
  -2  -3  -5  475.00   67.42
   2  -3   5  506.34   68.63
  -2   3  -6 5944.48  201.46
   2   3   6 6418.02  229.13
  -2   3  -6 5993.35  207.49
  -2  -3  -6 5804.80  207.95
  -2  -3  -6 5957.75  205.43
   2  -3   6 6362.80  218.66
  -2   3  -7  496.41   68.82
   2   3   7  536.21   74.93
  -2   3  -7  459.59   41.55
  -2  -3  -7  408.85   58.26
  -2  -3  -7  570.70   66.12
   2  -3   7  550.02   69.94
  -2   3  -8  998.20   70.55
   2   3   8 1086.92  124.52
  -2   3  -8  910.44   88.16
  -2  -3  -8  852.91  105.81
  -2  -3  -8 1075.03   67.66
   2  -3   8 1007.37  124.48
   2   3   9  114.35   20.37
  -2   3  -9  113.17   21.24
   2  -3   9  118.77   25.07
  -2  -3  -9   66.41   20.23
  -2  -3  -9  147.15   24.77
  -2   3 -10  104.03   22.37
   2   3  10   86.69   27.29
   2  -3  10  118.88   28.62
  -2   3 -11  109.20   29.28
   2   3  11   65.12   17.72
   2  -3  11  164.45   36.63
  -2   4  12  628.83   97.98
   2   4 -12  535.71   63.71
  -2  -4  12  616.88  100.77
   2  -4 -12  488.27   70.11
  -2   4  11   20.73   25.16
   2   4 -11   51.90   12.02
  -2  -4  11   42.05   16.02
   2  -4 -11   44.32   17.37
  -2   4  10  960.09  119.63
   2   4 -10 1041.06   94.67
  -2  -4  10  981.83  131.82
   2  -4 -10  940.05  104.15
  -2   4   9  633.82   98.70
   2   4  -9  782.84  109.03
  -2  -4   9  587.69   96.14
   2  -4  -9  614.23   87.99
   2  -4  -9  489.56   58.40
  -2   4   8 3045.04   96.84
   2   4  -8 2702.15  130.24
  -2  -4   8 3075.79   98.11
   2  -4  -8 2940.97   96.33
   2  -4  -8 2947.45   86.49
   2   4  -7  107.94   13.32
  -2   4   7  110.54   11.40
  -2  -4   7  136.30   20.16
   2  -4  -7  141.77   26.99
  -2   4   6 1680.88   49.35
  -2   4   6 1671.70   71.10
   2   4  -6 1651.82   42.00
   2   4  -6 1877.67  140.96
   2  -4  -6 1638.50   52.67
  -2  -4   6 1677.15   53.85
   2   4  -5 3815.89   71.70
  -2   4   5 3887.38   77.03
  -2   4   5 3967.79   77.49
   2   4  -5 3888.88   81.32
   2  -4  -5 3947.74   82.11
  -2  -4   5 4050.63   83.32
   2   4  -4 1470.69   53.91
  -2   4   4 1446.71   54.91
  -2   4   4 1486.95   57.59
   2   4  -4 1335.67   53.30
   2  -4  -4 1398.69   55.15
  -2  -4   4 1531.72   60.65
   2   4  -3 1870.53   69.21
  -2   4   3 1844.91   69.13
   2   4  -3 1830.08   68.27
   2   4  -3 1872.29   68.14
   2  -4  -3 2032.96   77.16
  -2   4   2 7615.73   90.87
   2   4  -2 7673.43  100.49
  -2   4   2 7619.08  111.86
   2   4  -2 7641.49   99.47
   2   4  -2 7733.83  100.04
   2  -4  -2 7648.31  101.83
   2   4  -1 1956.42   54.17
  -2   4   1 1953.20   55.65
   2   4  -1 1970.78   52.82
   2   4  -1 2062.68   57.13
   2  -4  -1 2099.47   58.41
   2   4   0  809.16   27.52
  -2   4   0  840.53   30.23
   2   4   0  881.27   74.14
  -2  -4   0  773.69   22.66
   2  -4   0  778.60   28.69
  -2   4  -1 5397.30   95.31
   2   4   1 5551.33   78.08
   2  -4   1 5413.60   78.96
  -2  -4  -1 5610.09   68.43
  -2  -4  -1 5397.17   78.69
   2  -4   1 5433.77   67.12
   2   4   2 2524.04   92.19
  -2   4  -2 2506.74   92.96
  -2   4  -2 2531.31   92.99
  -2  -4  -2 2512.09   86.95
  -2  -4  -2 2439.50   92.45
   2   4   3 1943.00   49.32
  -2   4  -3 1927.53   47.02
  -2   4  -3 1933.72   45.15
  -2  -4  -3 1989.35   43.20
  -2  -4  -3 1991.65   48.61
  -2   4  -4  111.05   13.14
   2   4   4  100.73   13.33
  -2   4  -4  117.74   12.53
  -2  -4  -4   93.70   11.39
  -2  -4  -4  110.06   23.95
   2  -4   4  102.44   17.45
  -2   4  -5 1202.56   51.03
   2   4   5 1174.94   48.16
  -2   4  -5 1231.83   51.57
  -2  -4  -5 1204.50   42.76
  -2  -4  -5 1263.35   63.48
   2  -4   5 1220.76   46.36
  -2   4  -6  756.06   73.62
   2   4   6  641.35   98.48
  -2   4  -6  730.32   72.73
  -2  -4  -6  599.20   49.29
  -2  -4  -6  678.22   84.31
   2  -4   6  707.29  104.27
  -2   4  -7  145.50   21.69
  -2   4  -7  219.67   22.65
  -2  -4  -7  160.62   22.54
  -2  -4  -7  160.77   19.55
   2  -4   7  160.09   23.09
  -2   4  -8  485.87   45.03
   2   4   8  539.65   74.83
  -2   4  -8  475.70   37.46
  -2  -4  -8  403.11   51.79
  -2  -4  -8  595.26   67.48
   2  -4   8  512.43   78.95
   2   4   9  719.83   98.92
  -2   4  -9  572.41   35.24
   2  -4   9  602.19   97.65
  -2  -4  -9  486.94   68.76
  -2  -4  -9  599.11   60.53
  -2   4 -10  281.22   53.05
   2   4  10  361.21   60.65
   2  -4  10  252.01   65.88
  -2   5  12  566.28   91.09
   2   5 -12  553.71   95.97
  -2  -5  12  663.04   95.73
   2  -5 -12  527.10   65.10
  -2   5  11   -6.92   27.70
   2   5 -11   62.50   16.95
  -2  -5  11   32.29   17.85
   2  -5 -11   63.00   16.30
  -2   5  10  124.19   21.64
   2   5 -10  105.10   18.68
  -2  -5  10  146.37   29.59
   2  -5 -10   85.25   18.58
  -2   5   9 2281.02  107.71
   2   5  -9 2066.85  199.92
  -2  -5   9 2239.31  103.85
   2  -5  -9 2334.84  108.84
   2  -5  -9 2216.27  133.10
   2   5  -8  370.99   47.70
   2  -5  -8  326.51   41.99
  -2  -5   8  361.02   63.51
  -2   5   7 3837.86  140.95
  -2   5   7 4039.70  150.20
   2   5  -7 3815.04  151.58
  -2  -5   7 4125.38  156.26
   2  -5  -7 4088.37  149.46
  -2   5   6   86.35   16.55
  -2   5   6  113.08   16.65
   2   5  -6   81.52   10.59
   2   5  -6  109.01   14.81
   2  -5  -6   73.08   17.73
  -2  -5   6   99.64   14.32
   2   5  -5  372.22   29.86
  -2   5   5  475.66   42.73
  -2   5   5  399.21   32.67
   2   5  -5  448.55   38.64
   2  -5  -5  381.42   20.46
  -2  -5   5  433.32   60.89
   2   5  -4 1200.25   61.91
  -2   5   4 1038.95   48.92
  -2   5   4 1092.46   87.43
   2   5  -4 1179.13  111.53
   2  -5  -4 1064.40   45.14
  -2  -5   4 1024.30   44.56
  -2   5   3  981.97   37.62
   2   5  -3  865.89   37.12
  -2   5   3  918.27   39.41
   2   5  -3  929.01   39.94
   2   5  -3 1005.46   63.28
   2  -5  -3  810.04   40.54
  -2   5   2 2341.58   83.04
   2   5  -2 2381.45   86.12
   2   5  -2 2456.76   88.96
  -2   5   2 2513.63  103.28
   2   5  -2 2406.91   87.54
   2   5  -1 4453.62   66.74
   2   5  -1 4457.44   64.50
  -2   5   1 4385.53   70.27
   2   5  -1 4414.67   74.23
   2   5   0 8793.77  123.69
  -2   5   0 8828.71  129.97
   2   5   0 8964.46  123.92
  -2  -5   0 8788.51  112.38
   2  -5   0 8872.94  122.56
   2   5   1 3449.68   61.60
   2   5   1 3422.13   56.82
  -2   5  -1 3574.73   61.50
  -2  -5  -1 3513.49   52.89
   2  -5   1 3377.38   59.48
   2  -5   1 3438.40   45.77
  -2   5  -2 5149.20   91.85
   2   5   2 5331.66   81.46
   2  -5   2 5225.12   69.91
  -2  -5  -2 5087.09   81.16
  -2  -5  -2 5182.81   70.20
  -2   5  -3 1103.19   52.26
   2   5   3 1274.89  101.05
  -2   5  -3 1179.30   43.01
  -2  -5  -3 1077.30   40.90
  -2  -5  -3 1156.93   40.13
   2  -5   3 1060.74   47.20
  -2   5  -4 3526.91   94.10
   2   5   4 3434.44   95.40
  -2   5  -4 3334.44   94.00
  -2  -5  -4 3514.78   88.84
  -2  -5  -4 3518.49   98.75
   2  -5   4 3415.08   93.26
  -2   5  -5  461.49   25.13
   2   5   5  548.81   77.90
  -2   5  -5  428.34   55.96
  -2  -5  -5  410.25   51.22
  -2  -5  -5  486.00   68.63
   2  -5   5  470.16   70.14
  -2   5  -6 6605.49  204.06
   2   5   6 6509.41  205.98
  -2   5  -6 6629.85  210.58
  -2  -5  -6 6534.00  200.55
  -2  -5  -6 6814.35  231.95
   2  -5   6 6777.19  210.64
  -2   5  -7  929.60  107.89
   2   5   7 1080.57   63.14
  -2   5  -7  941.83   84.75
  -2  -5  -7  786.65   84.95
  -2  -5  -7 1004.00  129.33
   2  -5   7  951.20  117.07
  -2   5  -8  880.57   41.07
   2   5   8  877.70  132.22
   2  -5   8 1039.59  122.91
  -2  -5  -8 1012.15  120.53
  -2  -5  -8  809.19   82.29
  -2   5  -9  118.91   29.58
   2   5   9  175.18   42.06
   2  -5   9  168.60   31.75
  -2  -5  -9  140.87   22.27
  -2   5 -10  156.35   28.50
   2   5  10  170.18   34.20
   2  -5  10  146.20   35.42
  -2   6  11  302.39   61.28
   2   6 -11  161.93   43.95
  -2  -6  11  162.92   36.50
   2  -6 -11  177.86   36.26
  -2   6  10  328.49   29.31
   2   6 -10  287.12   28.27
  -2  -6  10  325.20   56.46
   2  -6 -10  286.77   43.04
  -2   6   9  155.81   26.86
   2   6  -9  231.81   32.91
  -2  -6   9  181.40   27.53
   2  -6  -9  130.83   26.52
   2  -6  -9  116.84   23.47
  -2   6   8 1682.58   59.51
  -2   6   8 1629.29   68.10
   2   6  -8 1759.61  132.07
  -2  -6   8 1930.34   95.16
   2  -6  -8 1576.89   99.84
  -2   6   7  339.24   23.23
  -2   6   7  334.18   50.90
   2   6  -7  357.22   47.18
  -2  -6   7  398.70   46.29
   2  -6  -7  355.34   23.46
   2   6  -6 1685.97  104.83
   2   6  -6 1581.06   99.43
  -2   6   6 1539.98   61.64
   2  -6  -6 1503.79   61.75
  -2  -6   6 1608.07   99.30
   2   6  -5 1849.54   61.74
  -2   6   5 1767.25   69.94
  -2   6   5 1839.35   89.94
   2   6  -5 1863.38   59.75
   2  -6  -5 1896.30   66.52
  -2  -6   5 1948.22   69.34
   2   6  -4 3374.86   87.32
  -2   6   4 3284.36   84.13
  -2   6   4 3426.38   93.34
   2   6  -4 3264.67   89.67
   2  -6  -4 3492.39   93.32
  -2  -6   4 3554.29   95.05
  -2   6   3  619.72   25.57
   2   6  -3  678.49   64.06
  -2   6   3  665.32   40.31
   2   6  -3  658.35   67.14
   2   6  -3  665.87   31.88
   2  -6  -3  628.06   41.11
  -2   6   2  941.31   34.79
   2   6  -2  896.14   53.85
  -2   6   2  897.91   41.56
   2   6  -2  868.59   37.82
   2   6  -2  961.67   84.19
   2  -6  -2  973.26   45.65
   2   6  -1 6233.84   89.65
   2   6  -1 6175.09   92.57
  -2   6   1 6229.48  101.60
   2  -6  -1 6384.68   95.18
   2   6   0  341.02   49.62
  -2   6   0  284.19   19.69
   2   6   0  294.42   26.45
  -2  -6   0  290.25   43.67
   2  -6   0  283.19   41.67
   2   6   1 1028.55   56.19
   2   6   1 1166.50   87.49
  -2   6  -1  947.74   42.95
  -2  -6  -1  947.46   45.68
   2  -6   1  990.27   70.83
   2  -6   1 1000.68   36.17
   2   6   2 1405.17   64.12
   2   6   2 1388.62   60.86
  -2   6  -2 1454.19   43.36
  -2  -6  -2 1450.80   31.94
   2  -6   2 1485.15   43.07
   2  -6   2 1428.10   29.72
  -2   6  -3  914.93   35.26
   2   6   3  912.74   34.47
  -2   6  -3 1018.56   94.76
  -2  -6  -3  880.43   27.06
  -2  -6  -3  928.87   81.75
   2  -6   3  897.60   28.23
  -2   6  -4  193.94   17.16
   2   6   4  224.80   28.58
  -2   6  -4  158.16   21.88
  -2  -6  -4  149.04   19.68
  -2  -6  -4  141.15   23.55
   2  -6   4  149.19   22.20
  -2   6  -5 2015.55   66.17
   2   6   5 2078.52   98.78
  -2   6  -5 1981.34  164.21
  -2  -6  -5 2018.13   76.41
  -2  -6  -5 2077.24   81.64
   2  -6   5 1947.74   73.63
  -2   6  -6  345.66   55.40
   2   6   6  414.54   42.27
  -2   6  -6  368.18   26.38
  -2  -6  -6  269.97   42.51
  -2  -6  -6  386.46   52.60
   2  -6   6  292.23   51.39
  -2   6  -7 1114.31  117.72
   2   6   7 1190.11   64.21
  -2   6  -7 1214.51  123.78
  -2  -6  -7 1108.77   95.52
  -2  -6  -7 1365.76   68.92
   2  -6   7 1219.92   66.50
  -2   6  -8  496.49   55.54
   2   6   8  456.07   69.08
   2  -6   8  420.09   64.57
  -2  -6  -8  480.71   76.19
  -2   6  -9  432.30   50.36
   2   6   9  497.12   92.92
   2  -6   9  485.49   70.74
  -2  -6  -9  450.19   83.11
   2   6  10   75.35   21.88
  -2   6 -10   30.49   12.23
  -2   7  11   47.84   21.98
   2   7 -11   47.20   18.35
  -2  -7  11   89.93   26.46
   2  -7 -11   45.12   18.01
  -2   7  10   91.75   19.02
   2   7 -10  108.40   25.42
   2  -7 -10   90.57   25.08
   2  -7 -10   53.21   11.75
  -2   7   9  567.74   81.74
   2   7  -9  652.53   43.55
  -2  -7   9  582.34   69.90
   2  -7  -9  564.85   79.43
   2  -7  -9  473.66   78.02
  -2   7   8   56.09   11.91
  -2   7   8   17.30   20.77
   2   7  -8   42.72   12.87
  -2  -7   8   47.84    9.50
   2  -7  -8   11.09   16.58
  -2   7   7 1121.57   44.94
  -2   7   7 1411.30  155.37
   2   7  -7 1111.37   68.28
  -2  -7   7 1166.24  135.88
   2  -7  -7 1034.02  135.67
  -2   7   6 1036.53   73.83
  -2   7   6  916.98   30.76
   2   7  -6  870.52   73.90
   2   7  -6 1020.76  105.01
   2  -7  -6  969.44   83.80
  -2  -7   6 1016.63   83.32
   2   7  -5 1727.97  117.98
  -2   7   5 1676.26   73.64
  -2   7   5 1538.54  119.66
   2   7  -5 1597.83  156.25
   2  -7  -5 1540.60   61.43
  -2  -7   5 1644.37   65.36
   2   7  -4 3456.83  110.91
  -2   7   4 3518.71  111.39
  -2   7   4 3517.62  118.51
   2   7  -4 3369.80  111.27
   2  -7  -4 3483.07  115.47
  -2  -7   4 3374.23  112.00
  -2   7   3  912.31   29.95
   2   7  -3  965.46   87.14
  -2   7   3 1030.07   84.68
   2   7  -3 1019.83   94.36
   2   7  -3 1059.27  104.70
   2  -7  -3  961.50   36.51
  -2   7   2 4850.47  115.14
   2   7  -2 4847.85  122.35
  -2   7   2 4867.43  127.48
   2   7  -2 4821.44  123.06
   2   7  -2 4929.77  126.26
   2  -7  -2 4914.36  125.67
   2   7  -1   18.25    6.15
  -2   7   1   14.95   15.65
   2   7  -1   21.74    8.09
  -2  -7   1   36.34    5.55
   2  -7  -1   16.46    8.24
   2   7   0  950.05   78.76
  -2   7   0  820.56   35.00
   2   7   0  909.61   75.56
   2  -7   0  839.05   32.41
  -2  -7   0  836.49   32.68
   2   7   1   26.90   11.76
  -2   7  -1   15.27    6.42
   2   7   1   29.10   10.98
   2  -7   1   47.17   10.45
  -2  -7  -1   31.85    5.16
   2   7   2  301.27   33.35
   2   7   2  276.36   48.52
  -2   7  -2  254.23   22.11
  -2  -7  -2  234.25   38.90
   2  -7   2  240.29   32.79
   2  -7   2  238.90   21.47
  -2   7  -3  270.27   45.78
   2   7   3  303.42   40.99
   2  -7   3  231.79   40.42
  -2  -7  -3  250.18   36.58
  -2  -7  -3  285.02   45.77
   2  -7   3  236.96   37.44
  -2   7  -4 2103.22   81.94
   2   7   4 2058.30   79.69
  -2   7  -4 2157.51   87.30
  -2  -7  -4 2139.04   76.55
  -2  -7  -4 2210.81  127.60
   2  -7   4 2318.86   83.15
  -2   7  -5  524.73   45.85
   2   7   5  672.85   86.50
  -2   7  -5  583.60   71.92
  -2  -7  -5  422.10   58.50
  -2  -7  -5  601.71   69.53
   2  -7   5  467.56   72.35
  -2   7  -6 1225.05  105.42
   2   7   6 1298.39  150.63
  -2   7  -6 1161.57   65.41
  -2  -7  -6 1244.19   59.93
  -2  -7  -6 1210.81  140.16
   2  -7   6 1229.32   62.02
  -2   7  -7  505.35   59.18
   2   7   7  461.46   67.66
  -2   7  -7  472.20   77.07
  -2  -7  -7  534.79   46.92
   2  -7   7  470.53   54.71
  -2   7  -8  532.89   38.84
   2   7   8  577.98   98.60
   2  -7   8  454.06   73.01
  -2  -7  -8  547.44   78.51
  -2   7  -9   90.26   32.41
   2   7   9   42.28   14.70
   2  -7   9   27.26   14.57
  -2  -7  -9   12.67   13.88
  -2   8  10  762.98  105.94
   2   8 -10  666.42   63.56
  -2  -8  10  755.50  120.88
   2  -8 -10  618.56   92.29
  -2   8   9  239.61   52.71
   2   8  -9  297.05   38.63
  -2  -8   9  234.93   45.63
   2  -8  -9  288.67   37.55
  -2   8   8  297.98   55.64
  -2   8   8  361.81   51.71
   2   8  -8  312.46   31.87
  -2  -8   8  276.78   47.48
   2  -8  -8  307.74   50.93
   2   8  -7  320.22   33.91
  -2   8   7  363.85   61.98
  -2   8   7  321.50   36.16
   2   8  -7  344.74   35.01
   2  -8  -7  293.41   45.42
  -2  -8   7  332.89   42.77
   2   8  -6 1324.43   61.93
  -2   8   6 1485.44   54.52
  -2   8   6 1443.13   56.85
   2   8  -6 1317.09   53.19
   2  -8  -6 1251.82   48.24
  -2  -8   6 1287.37   74.04
   2   8  -5 3855.35  111.71
  -2   8   5 3925.82  112.35
  -2   8   5 3808.98  117.86
   2   8  -5 4197.68  237.05
   2  -8  -5 3739.65  113.18
  -2  -8   5 3874.95  114.60
   2   8  -4 1850.06   78.06
  -2   8   4 1965.00   72.48
  -2   8   4 1903.71  120.36
   2   8  -4 2016.11   79.71
   2  -8  -4 2075.64  103.00
  -2  -8   4 2001.76   88.10
  -2   8   3  275.54   17.34
   2   8  -3  249.13   16.15
  -2   8   3  259.58   25.88
   2   8  -3  231.18   35.12
   2   8  -3  279.61   41.41
   2  -8  -3  249.84   40.54
   2   8  -2 2540.87   88.64
   2   8  -2 2429.36   84.50
  -2   8   2 2447.44   87.09
   2  -8  -2 2533.68   86.84
   2   8  -1 1071.58   35.35
  -2   8   1 1268.48  135.98
   2   8  -1 1112.28   39.91
  -2  -8   1 1110.63   56.03
   2  -8  -1 1081.84   51.64
   2   8   0 1022.40   34.21
  -2   8   0  909.67   37.53
   2   8   0  912.01   37.87
   2  -8   0 1078.20  131.90
  -2  -8   0  951.45   51.40
   2   8   1  394.57   19.66
  -2   8  -1  386.73   26.15
   2   8   1  445.39   34.87
   2  -8   1  372.41   64.76
  -2  -8  -1  421.76   47.89
   2   8   2 1571.50   61.45
  -2   8  -2 1731.20  148.56
   2   8   2 1655.98  126.55
   2  -8   2 1612.38   67.44
  -2  -8  -2 1632.37   60.32
   2   8   3  967.02   73.22
   2   8   3 1019.25   60.69
  -2   8  -3 1001.91   68.99
  -2  -8  -3  917.07   22.91
   2  -8   3  803.66  121.11
   2  -8   3  838.15   26.09
  -2   8  -4 2044.12   77.11
   2   8   4 2077.62   78.44
   2  -8   4 1937.11   75.90
  -2  -8  -4 2130.30   83.52
  -2  -8  -4 1986.99   66.50
  -2   8  -5  237.26   38.27
   2   8   5  243.57   25.94
  -2   8  -5  430.77   90.94
  -2  -8  -5  238.00   27.22
  -2  -8  -5  298.39   35.49
   2  -8   5  222.97   36.14
  -2   8  -6   96.30   18.72
   2   8   6   99.02   19.83
  -2   8  -6   86.36   21.25
  -2  -8  -6  118.00   23.75
   2  -8   6   81.05   16.54
  -2   8  -7  294.51   38.18
   2   8   7  334.46   38.86
  -2   8  -7  313.19   33.72
  -2  -8  -7  268.67   36.55
   2  -8   7  282.80   38.26
  -2   8  -8   80.57   31.80
   2   8   8   28.57   16.97
   2  -8   8   53.75   17.78
  -2  -8  -8   44.61   15.95
   2   8   9  473.98   70.01
  -2   8  -9  455.14   40.92
  -2  -8  -9  405.58   54.40
  -2   9  10  168.75   39.68
   2   9 -10  211.12   32.49
  -2  -9  10  179.42   45.19
   2  -9 -10  195.40   32.67
  -2   9   9   90.74   26.26
   2   9  -9   62.27   25.15
  -2  -9   9  100.88   23.23
   2  -9  -9   76.25   17.17
  -2   9   8  132.39   23.21
  -2   9   8  136.83   23.24
   2   9  -8  184.68   37.07
  -2  -9   8  156.94   36.17
   2  -9  -8  174.00   29.68
  -2   9   7  379.61   42.43
  -2   9   7  331.65   63.98
   2   9  -7  413.01   36.33
  -2  -9   7  367.00   47.40
   2  -9  -7  375.65   50.10
  -2   9   6  294.63   36.85
  -2   9   6  246.95   33.83
   2   9  -6  227.72   26.14
   2   9  -6  271.82   30.73
   2  -9  -6  194.09   19.70
  -2  -9   6  254.39   31.12
   2   9  -5  699.07   33.53
  -2   9   5  740.99   61.52
   2   9  -5  725.51   43.85
  -2   9   5  652.40   32.68
  -2  -9   5  753.46   91.85
   2   9  -4 3039.32  102.51
  -2   9   4 3027.40   96.89
  -2   9   4 2877.11  232.34
   2   9  -4 3151.12  109.24
   2  -9  -4 2951.77  120.25
  -2  -9   4 3180.27  106.07
   2   9  -3 1071.94  101.58
  -2   9   3 1234.55   53.93
   2   9  -3 1207.54   47.58
   2   9  -3 1177.71  125.05
   2  -9  -3 1123.60   44.63
   2   9  -2 1460.03   50.49
  -2   9   2 1424.74   57.57
   2   9  -2 1502.24  128.42
  -2  -9   2 1434.34   51.77
   2  -9  -2 1415.29   51.97
   2   9  -1  206.31   26.79
  -2   9   1  247.68   26.83
   2   9  -1  268.67   27.54
  -2  -9   1  190.89   29.73
   2  -9  -1  207.32   37.99
   2   9   0 2877.39  103.24
  -2   9   0 2748.76  112.93
   2   9   0 2867.10  108.64
   2  -9   0 2902.13  125.85
  -2  -9   0 2985.84  106.84
   2   9   1  915.22   80.60
  -2   9  -1  863.14   59.09
   2   9   1  877.86   98.16
   2  -9   1  929.26   37.06
  -2  -9  -1  831.30   86.29
   2   9   2  328.95   19.57
  -2   9  -2  386.19   37.56
   2   9   2  310.45   27.20
   2  -9   2  305.80   46.16
  -2  -9  -2  311.88   48.05
   2   9   3  115.10   11.64
  -2   9  -3  111.67   20.59
   2   9   3  108.25   24.59
   2  -9   3  129.76   14.68
  -2  -9  -3   92.92   13.41
   2   9   4 4014.27  177.90
  -2   9  -4 3882.67  175.09
   2  -9   4 4161.18   72.95
  -2  -9  -4 4163.75   73.52
  -2  -9  -4 3979.03  172.37
   2   9   5  716.28   50.28
  -2   9  -5  722.91   53.50
  -2  -9  -5  720.74  109.99
   2   9   6  667.45   91.53
  -2   9  -6  686.72   43.22
  -2   9  -6  659.19   99.70
  -2  -9  -6  687.08   97.97
   2   9   7   77.10   20.03
  -2   9  -7   57.36   13.44
  -2   9  -7   29.73   13.17
  -2  -9  -7   50.88   21.58
   2   9   8  273.96   53.27
  -2   9  -8  274.42   55.47
  -2  -9  -8  196.62   47.51
  -2  10   9  138.68   27.72
  -2  10   9   63.35   21.92
   2  10  -9   82.31   29.66
  -2 -10   9   98.42   31.61
   2 -10  -9  115.63   20.40
  -2  10   8  204.40   26.20
  -2  10   8  177.40   30.68
   2  10  -8  240.12   30.06
  -2 -10   8  163.37   32.76
   2 -10  -8  176.84   37.99
  -2  10   7  252.70   23.80
  -2  10   7  248.07   42.67
   2  10  -7  227.61   25.77
  -2 -10   7  252.43   30.62
   2 -10  -7  238.67   47.44
  -2  10   6  163.52   26.08
  -2  10   6  144.77   20.25
   2  10  -6  156.50   26.63
   2  10  -6  156.32   19.45
   2 -10  -6  150.57   34.63
  -2 -10   6  171.25   26.72
   2  10  -5  858.11   68.04
  -2  10   5  871.80   89.39
   2  10  -5  893.39   58.45
   2 -10  -5  821.59  133.80
  -2 -10   5  803.80   99.11
   2  10  -4  199.14   22.32
  -2  10   4  169.99   24.63
   2  10  -4  125.80   17.14
   2 -10  -4  150.69   20.36
  -2 -10   4  202.62   35.05
   2  10  -3  572.18   50.63
  -2  10   3  678.18   34.47
   2  10  -3  585.88   49.64
  -2 -10   3  570.17   96.44
   2 -10  -3  604.72   89.75
   2  10  -2  571.17   58.28
  -2  10   2  498.19   38.06
   2  10  -2  551.89   55.83
  -2 -10   2  585.88   80.64
   2 -10  -2  580.67   89.99
   2  10  -1  944.94   82.10
  -2  10   1 1011.14   81.58
   2  10  -1 1053.33  100.39
  -2 -10   1 1064.65   45.11
   2 -10  -1 1075.58  110.52
   2  10   0  858.46   54.41
  -2  10   0  950.69   71.49
   2  10   0  915.41   34.99
  -2 -10   0  999.89   50.83
   2 -10   0  985.56   36.01
   2  10   1 2567.25   80.18
  -2  10  -1 2651.17   90.11
   2  10   1 2663.41  169.51
   2 -10   1 2520.99  124.20
  -2 -10  -1 2695.96   82.59
   2  10   2  478.35   62.60
  -2  10  -2  475.96   32.65
   2  10   2  507.78   64.43
   2 -10   2  477.00   71.86
  -2 -10  -2  410.94   51.24
   2  10   3   33.30   11.16
  -2  10  -3   24.88    8.31
   2  10   3   -6.09   22.00
   2 -10   3   38.17   12.28
  -2 -10  -3   10.43    8.53
   2  10   4  228.51   30.08
  -2  10  -4  231.76   42.94
  -2 -10  -4  226.63   44.35
   2 -10   4  213.36   44.43
   2  10   5   25.24    6.75
  -2  10  -5   48.79   17.25
  -2 -10  -5  -14.98   17.63
   2 -10   5   -3.79   21.80
   2  10   6  163.59   35.26
  -2  10  -6  178.72   28.52
  -2 -10  -6  169.97   37.79
   2 -10   6  187.20   40.27
   2  10   7  129.85   31.46
  -2 -10  -7  172.94   40.10
   2  10   8   95.05   24.63
  -2  10  -8  138.17   42.30
  -2 -10  -8   85.75   22.93
   2  11  -8   82.73   32.53
  -2  11   8   85.69   30.26
  -2 -11   8   90.27   31.66
   2 -11  -8  100.10   36.84
   2  11  -7  551.71   54.50
  -2  11   7  552.60   37.92
  -2 -11   7  428.08   68.67
   2 -11  -7  528.70   70.11
   2  11  -6  198.63   34.78
   2  11  -6  146.85   30.84
  -2  11   6  161.18   28.96
   2 -11  -6  115.65   27.83
  -2 -11   6  132.28   27.50
   2  11  -5  240.31   44.46
  -2  11   5  241.01   36.50
   2  11  -5  227.07   24.81
   2 -11  -5  230.55   47.15
  -2 -11   5  225.21   30.42
   2  11  -4  809.99   48.37
  -2  11   4  774.00   65.33
  -2 -11   4  733.73  118.18
  -2 -11   4  696.08  119.25
   2 -11  -4  767.43  104.74
   2  11  -3  393.20   39.69
  -2  11   3  402.90   32.66
   2  11  -3  493.76   62.85
  -2 -11   3  437.72   60.57
   2 -11  -3  466.77   67.12
   2  11  -2  289.86   33.48
  -2  11   2  278.03   37.02
   2  11  -2  310.61   30.85
  -2 -11   2  306.80   44.66
   2 -11  -2  313.93   60.28
   2  11  -1  473.00   68.98
  -2  11   1  523.18   80.89
   2  11  -1  533.06   64.48
  -2 -11   1  503.42   60.32
   2 -11  -1  557.31  101.87
   2  11   0 1082.24  113.83
  -2  11   0 1174.45  104.47
   2  11   0 1230.95  153.93
   2 -11   0 1155.55  163.63
  -2 -11   0 1175.22   92.77
   2  11   1  760.40   63.03
  -2  11  -1  739.21   93.04
   2  11   1  795.37   79.09
   2 -11   1  825.26  111.71
  -2 -11  -1  619.37   91.34
   2  11   2  302.62   39.14
  -2  11  -2  381.75   30.87
   2  11   2  264.59   37.54
   2 -11   2  335.08   55.77
  -2 -11  -2  251.43   43.78
   2  11   3  365.21   45.65
   2  11   3  367.58   49.09
  -2  11  -3  395.57   54.30
   2 -11   3  349.87   57.61
   2  11   4  518.02   45.98
  -2  11  -4  541.52   90.20
  -2 -11  -4  466.30   69.04
   2 -11   4  568.69   99.87
   2  11   5   91.55   14.89
  -2  11  -5   72.07   17.99
  -2 -11  -5   63.27   15.79
   2 -11   5  112.81   23.65
   2  11   6  143.48   29.07
  -2  11  -6  218.56   41.67
  -2 -11  -6  189.90   40.28
   2 -11   6  131.53   25.38
   2  11   7  134.54   30.20
   2 -11   7  133.17   36.29
  -2 -11  -7  110.15   35.47
  -2  12   7  376.94   64.91
   2  12  -7  403.42   54.81
   2 -12  -7  279.32   57.80
   2  12  -6   40.88   15.40
   2  12  -6  104.51   24.85
  -2  12   6   64.98   27.47
   2 -12  -6   41.32   13.58
   2  12  -5  113.55   23.22
  -2  12   5  132.52   25.77
  -2 -12   5  124.69   28.81
   2 -12  -5   87.26   24.45
  -2  12   4 1599.72  224.77
   2  12  -4 1646.89   78.07
  -2 -12   4 1843.46   84.10
   2 -12  -4 1727.03   77.91
   2  12  -3  532.19   41.76
  -2  12   3  545.17   35.57
  -2 -12   3  435.72   79.78
  -2 -12   3  477.99   86.98
   2 -12  -3  548.51   68.39
   2  12  -2   41.34   12.38
  -2  12   2   55.59   12.26
   2  12  -2   38.50   14.18
  -2 -12   2   63.05   14.82
   2 -12  -2   40.36   28.64
   2  12  -1  108.72   13.31
  -2  12   1   90.87   18.85
   2  12  -1   80.19   15.90
  -2 -12   1   90.48   13.46
   2 -12  -1   99.08   17.16
   2  12   0 1191.58  112.06
  -2  12   0 1450.61  128.92
   2  12   0 1417.67  121.15
   2 -12   0 1561.73   55.81
  -2 -12   0 1469.92   59.56
   2  12   1 1571.30   40.24
  -2  12  -1 1600.46   63.96
   2  12   1 1573.58   95.07
   2 -12   1 1613.84  209.38
  -2 -12  -1 1566.75   99.49
   2  12   2   81.08   16.87
   2  12   2   86.36   18.11
  -2  12  -2   66.31   18.42
   2 -12   2   54.39   18.93
   2  12   3  129.24   22.38
   2  12   3  154.40   28.06
  -2  12  -3  138.94   27.83
   2 -12   3  218.78   40.34
   2  12   4   69.79   18.91
  -2  12  -4   52.53   13.99
  -2 -12  -4   69.71   19.95
   2 -12   4  143.81   30.37
   2  12   5   69.73   20.60
  -2  12  -5  116.39   30.91
  -2 -12  -5  117.14   34.02
   2 -12   5  143.48   32.90
   2  12   6   97.37   29.21
  -2  12  -6   81.81   16.21
  -2 -12  -6   72.71   31.39
   2 -12   6  111.14   24.60
  -2  13   6   89.81   21.49
   2 -13  -6   72.28   16.00
  -2 -13   6   69.23   16.05
   2  13  -5  429.77   70.65
  -2  13   5  495.40   48.35
  -2 -13   5  493.92   59.38
   2 -13  -5  379.42   70.04
  -2  13   4  235.71   27.88
   2  13  -4  255.59   34.62
  -2 -13   4  282.24   30.75
   2 -13  -4  246.91   43.46
  -2  13   3   38.50   19.69
   2  13  -3   23.77   12.55
  -2 -13   3   34.93   15.67
   2 -13  -3   21.76    6.77
  -2  13   2   41.93   20.41
   2  13  -2   61.29   28.32
  -2 -13   2   62.09   15.17
   2 -13  -2   55.54   23.56
  -2  13   1  175.61   29.73
   2  13  -1  194.71   36.66
  -2 -13   1  169.23   31.40
   2 -13  -1  158.16   32.54
  -2  13   0  265.23   33.68
   2  13   0  307.97   27.87
  -2 -13   0  216.60   40.57
   2 -13   0  255.89   38.13
   2  13   1  411.22   55.17
  -2  13  -1  399.76   32.21
   2 -13   1  412.28   61.20
   2  13   2  252.93   26.68
  -2  13  -2  229.22   28.89
   2 -13   2  295.30   44.92
   2  13   3  167.14   33.56
  -2  13  -3  182.56   41.39
   2 -13   3  199.85   44.33
  -2  13  -4  226.66   37.64
  -2 -13  -4  230.40   45.02
   2 -13   4  241.29   48.97
  -2  14   4  358.74   47.71
   2  14  -4  433.29   40.61
  -2 -14   4  368.87   90.06
   2 -14  -4  384.78   78.22
  -2  14   3  105.67   17.93
   2  14  -3  142.62   26.91
  -2 -14   3  126.84   34.99
   2 -14  -3  138.16   25.19
  -2  14   2   20.99   23.39
   2  14  -2   28.97   10.98
  -2 -14   2   18.77   10.26
   2 -14  -2   15.06   12.03
  -2  14   1   69.70   34.73
   2  14  -1   12.79   18.86
  -2 -14   1   47.23   17.36
   2 -14  -1   64.34   22.13
   2  14   0   39.63   14.83
  -2  14   0   83.92   29.05
   2 -14   0   75.81   29.02
   2  14   1  326.21   46.29
  -2  14  -1  191.93   33.23
   2 -14   1  303.39   67.30
   2  14   2   58.26   23.69
  -2  14  -2   73.76   23.92
   2 -14   2   72.97   16.67
  -3   0  13  514.30   67.08
   3   0 -13  498.92   90.93
  -3   0  12  659.12   90.00
   3   0 -12  695.59   71.84
  -3   0  11 1124.06  121.78
   3   0 -11 1089.71  117.45
  -3   0  10  381.07   51.64
   3   0 -10  371.26   54.17
  -3   0   9   85.52   14.52
   3   0  -9   72.83   19.76
  -3   0   8 2678.28   99.55
   3   0  -8 2816.40  106.94
  -3   0   7    3.11    5.81
  -3   0   6  132.52   22.93
   3   0  -6  141.42   18.22
  -3   0   5 1934.91   80.60
   3   0  -5 1859.08   70.45
  -3   0   5 1971.96   68.03
  -3   0   4 7982.83  119.22
   3   0  -4 8178.12  113.82
  -3   0   4 8023.05   95.98
   3   0  -3  864.63   67.97
   3   0  -3  781.60   26.01
  -3   0   3  773.83   22.72
   3   0  -2  757.54   62.07
   3   0  -2  779.15   41.92
  -3   0   2  677.86   21.74
   3   0  -1  218.35   23.93
   3   0  -1  200.48    9.26
  -3   0   1  240.86   33.42
   3   0   0 3064.58   78.53
   3   0   0 3033.76   75.60
  -3   0   0 2979.37   77.72
   3   0   1 1931.06   53.53
   3   0   1 1911.74   52.00
  -3   0  -1 1964.19   55.11
   3   0   231268.70  376.53
  -3   0  -231514.54 1077.36
  -3   0  -231448.18 1078.22
   3   0   3  198.11   14.98
  -3   0  -3  203.58   13.82
  -3   0  -3  245.61   34.51
   3   0   4 6612.90  123.38
  -3   0  -4 6757.46  120.88
  -3   0  -4 6660.69  122.97
   3   0   5 1137.30   45.23
  -3   0  -5 1198.19   43.54
  -3   0  -5 1107.76   45.31
  -3   0  -6   92.72   12.94
   3   0   7  105.74   31.46
  -3   0  -7    5.53   14.61
  -3   0  -7   37.63   11.94
   3   0   8  800.24   70.03
  -3   0  -8  781.58   29.87
  -3   0  -8  854.21   46.51
   3   0   9  748.98  127.01
  -3   0  -9  748.10   42.95
  -3   0  -9  682.16   56.50
   3   0  10  411.28   70.16
  -3   0 -10  253.58   67.06
  -3   1  13  102.29   21.86
   3   1 -13  103.72   23.16
  -3  -1  13  119.89   26.18
   3  -1 -13  128.88   35.28
  -3   1  12  684.11   77.55
   3   1 -12  679.66   69.31
   3  -1 -12  620.76   77.11
  -3  -1  12  750.49   84.14
  -3   1  11   46.68   16.77
   3   1 -11   18.18   11.15
  -3  -1  11  -24.80   21.93
   3  -1 -11   28.83   21.68
  -3   1  10  606.77   80.11
   3   1 -10  530.82   49.77
  -3  -1  10  507.43   65.91
   3  -1 -10  622.93   80.28
  -3   1   9 5495.44  254.22
   3   1  -9 5145.09  170.04
   3  -1  -9 5246.99  173.25
  -3  -1   9 5141.98  180.11
  -3   1   8   23.63   13.91
   3   1  -8   31.47   10.43
  -3  -1   8   19.64   10.01
   3  -1  -8   18.58   10.94
  -3   1   7  483.21   60.25
   3   1  -7  500.43   50.38
   3  -1  -7  552.57   73.49
  -3  -1   7  473.28   56.15
   3  -1  -7  457.81   14.48
  -3   1   6 2682.43   48.47
  -3   1   6 2636.86   59.12
   3   1  -6 2716.22   62.34
  -3  -1   6 2772.86   65.21
   3  -1  -6 2629.84   59.94
  -3   1   5 7403.75   93.55
  -3   1   5 7319.39  103.86
   3   1  -5 7246.36  105.08
  -3  -1   5 7305.25  104.79
   3  -1  -5 7411.99  107.00
  -3   1   4  913.80   27.16
  -3   1   4  882.57   29.65
   3   1  -4  926.48   32.95
   3  -1  -4  917.67   31.84
  -3  -1   4  906.76   24.52
  -3  -1   4  972.14   33.28
  -3   1   311363.45  140.23
   3   1  -311631.31  144.55
   3   1  -311489.43  141.14
   3  -1  -311472.75  142.12
  -3  -1   311476.48  135.01
   3   1  -2 2327.60   62.43
   3   1  -2 2388.52   61.93
  -3   1   2 2318.23   61.11
   3  -1  -2 2354.81   62.02
  -3  -1   2 2372.05   61.41
   3  -1  -2 2388.62   61.67
   3   1  -1 3055.32   79.12
   3   1  -1 3164.25   78.54
  -3   1   1 3059.68   84.54
   3  -1  -1 3191.46   85.53
  -3  -1   1 3168.30   81.80
   3  -1  -1 3198.35   80.55
  -3   1   0 5050.19   70.78
   3   1   0 5030.05   69.34
   3   1   0 5067.34   61.32
   3  -1   0 5216.68   67.94
  -3  -1   0 4990.66   72.65
   3  -1   0 5087.67   66.03
   3   1   1 2427.19   66.20
   3   1   1 2434.30   60.36
  -3   1  -1 2356.63   64.99
   3  -1   1 2339.11   64.41
  -3  -1  -1 2307.21   63.66
   3  -1   1 2342.11   62.11
  -3   1  -2 5204.90   77.58
   3   1   2 5567.69   82.23
  -3   1  -2 5238.25   73.60
  -3  -1  -2 5477.01   70.70
  -3  -1  -2 5442.65   80.48
   3  -1   2 5383.74   77.40
  -3   1  -3 2136.87   80.57
   3   1   3 2231.63   84.68
  -3   1  -3 2031.25   82.12
  -3  -1  -3 2249.72   79.90
  -3  -1  -3 2047.26   80.63
   3  -1   3 2239.86   83.43
  -3   1  -4  330.73   21.05
   3   1   4  328.14   44.25
  -3   1  -4  331.85   32.02
  -3  -1  -4  336.40   25.84
  -3  -1  -4  359.80   43.84
   3  -1   4  355.40   46.76
  -3   1  -5 3476.86  112.75
   3   1   5 3342.47  111.66
  -3   1  -5 3360.40  111.58
  -3  -1  -5 3270.98  114.33
  -3  -1  -5 3257.11  125.18
   3  -1   5 3376.42  111.62
  -3   1  -6 1111.70   42.64
   3   1   6 1114.59  135.00
  -3   1  -6 1044.39   79.61
  -3  -1  -6 1004.45   84.33
  -3  -1  -6 1041.96   45.57
   3  -1   6 1095.06  126.75
  -3   1  -7   19.59   10.20
  -3   1  -7   15.30    8.47
  -3  -1  -7   -0.08   13.14
  -3  -1  -7   -6.02   13.15
  -3   1  -8 1564.09   40.61
   3   1   8 1443.32  177.71
  -3   1  -8 1351.15  116.45
  -3  -1  -8 1225.45  125.03
  -3  -1  -8 1661.72   81.29
   3  -1   8 1372.40  179.94
  -3   1  -9  189.57   33.71
   3   1   9  274.65   41.59
  -3   1  -9  216.00   35.91
  -3  -1  -9  210.82   39.25
  -3  -1  -9  202.76   40.36
   3  -1   9  243.90   46.23
   3   1  10  860.24  121.62
  -3   1 -10  683.20  100.42
   3  -1  10  920.59  137.27
  -3   2  12  583.51  105.89
   3   2 -12  626.49   73.83
  -3  -2  12  656.25   96.37
   3  -2 -12  624.92   63.01
  -3   2  11  652.82   91.81
   3   2 -11  553.39   42.01
  -3  -2  11  653.51   97.36
   3  -2 -11  564.99   51.02
  -3   2  10  377.30   45.87
   3   2 -10  361.75   34.79
  -3  -2  10  399.05   66.29
   3  -2 -10  453.05   80.55
  -3   2   9  960.60  115.79
   3   2  -9  937.18   90.77
  -3  -2   9  898.24  134.04
   3  -2  -9 1026.77  110.39
  -3   2   8  520.30   74.29
   3   2  -8  586.70   77.87
  -3  -2   8  460.26   61.15
   3  -2  -8  538.52   58.64
  -3   2   7 1410.30   72.45
  -3   2   7 1563.38   51.53
   3   2  -7 1499.98  140.22
  -3  -2   7 1379.03   47.67
   3  -2  -7 1375.95  127.39
  -3   2   6 4911.71   87.67
  -3   2   6 5071.03  142.16
   3   2  -6 4937.56  101.55
  -3  -2   6 4963.14  102.96
   3  -2  -6 5130.54  101.40
  -3   2   5 1319.14   49.25
  -3   2   5 1279.48   51.31
   3   2  -5 1282.00   58.75
   3  -2  -5 1234.81   50.49
  -3  -2   5 1268.69   43.45
  -3  -2   5 1273.53   52.35
  -3   2   4 3548.06   52.87
  -3   2   4 3561.69   59.22
   3   2  -4 3525.47   57.21
  -3  -2   4 3846.06   63.66
   3  -2  -4 3759.92   61.21
  -3   2   3 5405.18   74.70
   3   2  -3 5481.29   77.45
   3   2  -3 5513.00   75.46
  -3   2   3 5481.68   73.98
   3  -2  -3 5498.23   77.12
  -3  -2   3 5346.03   67.96
   3   2  -2 7023.58   92.62
   3   2  -2 7219.35   90.45
  -3   2   2 6999.72   93.50
   3  -2  -2 7129.22   93.36
  -3  -2   2 7049.84   89.08
   3   2  -1  584.17   57.89
   3   2  -1  554.34   17.74
  -3   2   1  576.27   22.58
   3  -2  -1  579.00   25.74
  -3  -2   1  599.06   21.70
   3  -2  -1  550.97   18.78
   3   2   0 9950.18  112.17
   3   2   0 9901.05  125.12
  -3   2   0 9954.30  126.92
   3  -2   010071.57  124.93
   3  -2   0 9858.30  120.61
  -3  -2   0 9924.07  126.40
  -3  -2   0 9741.13  109.80
  -3   2  -1 2000.49   57.27
   3   2   1 2145.61   60.90
   3  -2   1 2134.41   56.39
  -3  -2  -1 2093.10   58.77
   3  -2   1 2163.94   60.69
  -3   2  -2 6922.46   98.47
   3   2   2 6879.85  102.17
  -3   2  -2 6714.68   94.13
  -3  -2  -2 6907.23   84.23
  -3  -2  -2 6814.96   97.32
   3  -2   2 6923.60   95.89
  -3   2  -3 1064.95   44.45
   3   2   3  960.52   63.30
  -3   2  -3 1046.62   78.96
  -3  -2  -3 1083.21   42.26
  -3  -2  -3 1181.64   75.65
   3  -2   3 1185.21   49.22
  -3   2  -4 5951.41  149.27
   3   2   4 5962.82  151.18
  -3   2  -4 5683.49  142.70
  -3  -2  -4 5672.26  138.88
  -3  -2  -4 5826.91  160.42
   3  -2   4 5867.35  146.49
  -3   2  -5 1587.55   57.47
   3   2   5 1426.20   58.57
  -3   2  -5 1615.88   64.41
  -3  -2  -5 1530.15   52.80
  -3  -2  -5 1547.91   61.09
   3  -2   5 1491.92   83.36
  -3   2  -6  526.76   61.49
   3   2   6  522.82   69.35
  -3   2  -6  512.09   23.34
  -3  -2  -6  438.92   20.34
  -3  -2  -6  499.81   60.74
   3  -2   6  518.90   72.58
  -3   2  -7  154.74   16.42
  -3   2  -7  126.59   16.04
   3  -2   7  191.35   22.21
  -3  -2  -7  144.94   21.43
  -3   2  -8  543.22   46.27
   3   2   8  570.93   94.94
  -3   2  -8  562.04   34.78
  -3  -2  -8  422.91   74.73
  -3  -2  -8  584.66   44.82
   3  -2   8  549.45   72.40
  -3   2  -9  361.74   32.04
   3   2   9  427.26   77.57
   3  -2   9  356.36   50.95
  -3  -2  -9  320.77   62.64
  -3   2 -10  145.42   40.82
   3   2  10  195.23   49.58
   3  -2  10  159.85   46.00
  -3   3  12  662.76  155.81
   3   3 -12  635.62   38.04
  -3  -3  12  590.22   75.95
   3  -3 -12  657.68   75.81
  -3   3  11   27.59   16.80
   3   3 -11   -8.44   19.34
  -3  -3  11   11.26   12.25
   3  -3 -11   46.21   19.48
  -3   3  10 2142.60  101.10
   3   3 -10 2172.50  137.24
  -3  -3  10 2118.84  110.72
   3  -3 -10 2091.32  175.94
  -3   3   9 3457.85  114.10
   3   3  -9 3127.43  103.06
  -3  -3   9 3077.80   99.93
   3  -3  -9 2951.75  112.17
  -3   3   8  925.71   83.58
  -3   3   8 1064.53  114.17
   3   3  -8 1094.49  113.48
  -3  -3   8 1088.60   48.70
   3  -3  -8  991.59   51.43
  -3   3   7 1477.30   50.36
  -3   3   7 1509.91   58.55
   3   3  -7 1475.92   60.17
  -3  -3   7 1612.40   75.51
   3  -3  -7 1625.61  106.23
  -3   3   6  869.75   81.27
  -3   3   6  892.98   39.51
   3   3  -6 1027.48   97.57
  -3  -3   6  891.52   52.43
   3  -3  -6  962.66   89.43
  -3   3   5 7483.42  131.61
  -3   3   5 7472.09  104.73
   3   3  -5 7321.89  107.59
   3  -3  -5 7391.06  135.56
  -3  -3   5 7458.89  123.34
  -3  -3   5 7245.65  109.80
  -3   3   4 3733.97   59.18
  -3   3   4 3743.38   56.18
   3   3  -4 3556.35   59.12
   3  -3  -4 3623.50   62.60
  -3  -3   4 3690.93   50.54
  -3  -3   4 3649.64   62.31
  -3   3   3 7860.39  101.31
   3   3  -3 8039.97  107.76
   3   3  -3 7926.07  103.83
  -3   3   3 7888.21  103.99
   3  -3  -3 8110.20  115.12
  -3  -3   3 8039.61  100.34
  -3   3   2 1721.42   46.36
   3   3  -2 1774.99   51.88
   3   3  -2 1781.11   48.50
  -3   3   2 1763.77   51.21
   3  -3  -2 1771.45   51.12
  -3  -3   2 1703.56   47.09
   3   3  -1 1133.60   38.00
   3   3  -1 1191.41   32.34
  -3   3   1 1157.40   37.18
   3  -3  -1 1069.47   33.74
  -3  -3   1 1072.72   34.77
   3  -3  -1 1086.71   28.60
   3   3   0  180.96   18.27
  -3   3   0  184.93   21.72
  -3  -3   0  155.54    6.75
   3  -3   0  145.38   16.54
  -3  -3   0  164.90   23.52
   3  -3   0  164.40   23.47
  -3   3  -1 1002.71   42.20
   3   3   1  982.07   40.34
   3  -3   1 1030.71   39.32
  -3  -3  -1  979.34   41.45
   3  -3   1 1024.66   42.05
  -3   3  -2 3932.04   64.97
   3   3   2 3903.78   64.92
   3  -3   2 3937.93   59.48
  -3  -3  -2 3917.07   66.70
  -3  -3  -2 3969.60   48.45
  -3   3  -3 5305.46  101.29
   3   3   3 5171.17  109.60
  -3   3  -3 5382.22  103.09
  -3  -3  -3 5338.90   91.24
  -3  -3  -3 5126.08  102.15
   3  -3   3 5266.86   97.89
  -3   3  -4  271.28   26.83
   3   3   4  259.64   18.44
  -3   3  -4  251.45   19.16
  -3  -3  -4  230.66   18.49
  -3  -3  -4  231.79   33.18
   3  -3   4  292.93   40.77
  -3   3  -5 3411.23  124.63
   3   3   5 3355.65  142.84
  -3   3  -5 3492.59  125.34
  -3  -3  -5 3331.91  114.59
  -3  -3  -5 3437.24  124.40
   3  -3   5 3438.66  122.27
  -3   3  -6 1509.49  135.91
   3   3   6 1427.00  154.12
  -3   3  -6 1510.58  116.61
  -3  -3  -6 1318.47   49.49
   3  -3   6 1283.23   54.65
  -3   3  -7  765.72   58.31
   3   3   7  720.12  104.93
  -3   3  -7  775.70   46.85
  -3  -3  -7  608.33   72.35
  -3  -3  -7  940.19   90.70
   3  -3   7  791.34  112.61
  -3   3  -8  166.31   34.26
   3   3   8  257.03   37.14
  -3   3  -8  180.13   22.23
  -3  -3  -8  164.94   24.87
  -3  -3  -8  214.33   23.66
   3  -3   8  203.75   35.64
  -3   3  -9  273.77   30.27
   3   3   9  268.83   47.50
   3  -3   9  236.10   30.92
  -3  -3  -9  240.00   26.53
  -3   3 -10  477.00   34.48
   3   3  10  527.71   64.45
   3  -3  10  464.00   78.24
  -3   4  12  508.26   62.12
   3   4 -12  509.04   76.37
  -3  -4  12  496.56   80.35
   3  -4 -12  466.37   48.47
  -3   4  11 1033.85  138.23
   3   4 -11 1005.59   87.50
  -3  -4  11 1254.50  141.20
   3  -4 -11 1095.86  125.92
  -3   4  10  996.51  110.43
   3   4 -10 1082.16   47.01
  -3  -4  10 1030.07  123.19
   3  -4 -10 1014.88   98.61
  -3   4   9  751.77  100.82
   3   4  -9  747.01  114.41
  -3  -4   9  694.03  104.19
   3  -4  -9  776.27   95.35
   3  -4  -9  568.57   71.08
  -3   4   8 1315.12   44.94
  -3   4   8 1393.25  139.90
   3   4  -8 1458.40  158.24
  -3  -4   8 1239.50   73.33
   3  -4  -8 1266.80   50.89
  -3   4   7  100.92   16.71
  -3   4   7   98.05   12.13
  -3  -4   7  144.95   21.66
   3  -4  -7  109.39   14.41
  -3   4   6 1376.61   97.56
  -3   4   6 1547.89  101.04
   3   4  -6 1428.81  122.64
  -3  -4   6 1300.39   46.16
   3  -4  -6 1373.58   46.15
  -3   4   5 1012.04   44.35
  -3   4   5 1032.90   52.60
   3   4  -5  933.87   42.76
   3  -4  -5  960.98   44.03
  -3  -4   5  959.90   36.39
  -3  -4   5  930.71   42.14
  -3   4   4 3067.05  109.64
   3   4  -4 3048.90  111.10
   3   4  -4 2908.49  105.53
  -3   4   4 3090.95  113.17
   3  -4  -4 3129.55  115.47
  -3  -4   4 3144.58  111.88
  -3   4   3 8577.46  109.55
   3   4  -3 8500.89  117.56
   3   4  -3 8424.92  113.45
  -3   4   3 8560.59  117.63
   3  -4  -3 8661.14  122.66
  -3  -4   3 8388.78  113.17
  -3   4   227485.58  320.95
   3   4  -227523.38  334.71
   3   4  -227387.82  327.92
  -3   4   227751.92  338.73
   3  -4  -227151.53  338.00
  -3  -4   226938.90  329.49
  -3   4   116205.18  187.57
   3   4  -115855.66  200.89
   3   4  -116073.50  194.11
  -3   4   116003.20  205.34
   3  -4  -116118.08  204.58
  -3  -4   115996.77  201.38
   3   4   0 2195.19   81.56
  -3   4   0 2126.00   79.85
  -3  -4   0 2008.23   69.68
   3  -4   0 2045.57   70.04
  -3  -4   0 2055.08   77.20
   3  -4   0 1982.31   74.61
  -3   4  -1 1881.94   72.48
   3   4   1 1776.05   67.50
   3  -4   1 1889.70   67.11
  -3  -4  -1 1832.66   71.58
   3  -4   1 1838.82   70.59
   3   4   2 2350.83   55.23
  -3   4  -2 2334.03   53.66
   3  -4   2 2361.42   54.73
  -3  -4  -2 2288.93   53.71
  -3  -4  -2 2270.52   39.74
  -3   4  -3  824.94   69.71
   3   4   3  700.59   36.74
  -3   4  -3  734.98   67.96
  -3  -4  -3  643.94   38.52
  -3  -4  -3  656.38   35.06
   3  -4   3  716.50   38.37
  -3   4  -4 1526.23   97.75
   3   4   4 1427.24   57.01
  -3   4  -4 1418.65   57.03
  -3  -4  -4 1344.91   44.50
  -3  -4  -4 1373.83   53.25
   3  -4   4 1386.57   50.29
  -3   4  -5  858.24   46.81
   3   4   5  808.59   87.09
  -3   4  -5  851.78   40.15
  -3  -4  -5  710.76   72.89
  -3  -4  -5  916.28   99.45
   3  -4   5  903.76   50.56
  -3   4  -6 2388.45  101.38
   3   4   6 2501.75   94.83
  -3   4  -6 2403.12  123.88
  -3  -4  -6 2411.72   83.42
  -3  -4  -6 2554.22  137.87
   3  -4   6 2442.89   90.21
  -3   4  -7   14.85    6.00
   3   4   7   33.23   12.67
  -3   4  -7   15.83    7.12
  -3  -4  -7   17.13   10.53
  -3  -4  -7   32.55   11.48
   3  -4   7   -3.59   16.15
  -3   4  -8  556.39   32.99
   3   4   8  545.63   79.52
  -3   4  -8  548.55   57.95
  -3  -4  -8  637.62   59.29
   3  -4   8  535.09   68.64
  -3   4  -9  163.89   35.17
   3   4   9  206.39   33.92
   3  -4   9  206.72   32.53
  -3  -4  -9  260.16   35.57
  -3   4 -10   73.70   19.39
   3   4  10   54.07   16.17
   3  -4  10   -5.53   22.82
  -3   5  12  341.77   48.55
   3   5 -12  322.67   29.80
  -3  -5  12  349.33   39.91
   3  -5 -12  304.20   72.54
  -3   5  11  232.41   38.54
   3   5 -11  235.78   32.21
  -3  -5  11  224.06   29.98
   3  -5 -11  217.91   34.88
  -3   5  10 1780.45  200.15
   3   5 -10 1835.88  106.79
  -3  -5  10 1932.32  272.84
   3  -5 -10 1598.35  195.10
  -3   5   9    9.17    9.12
  -3   5   9   61.42   17.50
   3   5  -9   31.18   12.98
  -3  -5   9   47.97   16.04
   3  -5  -9   37.10   18.30
  -3   5   8 2393.22   81.71
  -3   5   8 2612.08  117.73
   3   5  -8 2422.43   90.37
  -3  -5   8 2615.23   94.28
   3  -5  -8 2527.05   91.25
  -3   5   7  429.09   35.60
  -3   5   7  497.60   56.44
   3   5  -7  542.98   64.77
  -3  -5   7  501.41   62.39
   3  -5  -7  453.59   26.81
  -3   5   6  587.26   48.00
  -3   5   6  563.70   23.94
   3   5  -6  582.47   64.77
   3  -5  -6  582.14   85.77
  -3  -5   6  568.07   32.15
  -3  -5   6  670.90   92.24
  -3   5   5 1923.04   58.04
  -3   5   5 1871.93   52.92
   3   5  -5 1847.90   56.83
  -3  -5   5 1895.70   71.34
   3  -5  -5 1944.02   59.35
  -3   5   4 2143.07   48.09
   3   5  -4 2201.00   52.35
  -3   5   4 2162.59   51.70
   3   5  -4 2309.80  123.22
   3   5  -4 2157.44   53.10
   3  -5  -4 2218.06   54.43
  -3   5   3 1501.82   55.18
   3   5  -3 1496.33   58.52
  -3   5   3 1484.94  128.31
   3   5  -3 1488.63   66.66
   3   5  -3 1628.81   97.07
   3  -5  -3 1680.18   67.59
   3   5  -2 5290.65   79.25
   3   5  -2 5610.26   80.12
  -3   5   2 5606.21   87.43
   3  -5  -2 5288.60   89.68
  -3  -5   2 5591.81   81.85
   3   5  -1 6581.95   95.26
   3   5  -1 6645.39   88.11
  -3   5   1 6504.21   98.19
   3  -5  -1 6455.23   94.82
  -3  -5   1 6607.56   96.34
   3   5   0 6224.34   92.75
  -3   5   0 6277.69   96.85
  -3  -5   0 6401.22   82.49
  -3  -5   0 6470.49   97.05
   3  -5   0 6102.06   91.39
  -3   5  -1 1934.26   48.96
   3   5   1 1976.22   48.59
   3  -5   1 1820.12   55.73
  -3  -5  -1 2031.22   37.02
  -3  -5  -1 1940.07   51.72
   3  -5   1 1909.51   35.45
  -3   5  -2  468.40   26.40
   3   5   2  469.77   25.35
   3  -5   2  486.06   71.05
  -3  -5  -2  453.45   19.36
  -3  -5  -2  456.34   80.17
   3  -5   2  449.21   20.04
  -3   5  -3 3058.34   85.14
   3   5   3 3023.58   90.76
  -3   5  -3 2951.85   83.34
  -3  -5  -3 2947.60   72.08
  -3  -5  -3 3060.75   86.27
   3  -5   3 3059.18   78.32
  -3   5  -4 3703.39  122.16
   3   5   4 3565.51  133.03
  -3   5  -4 3513.72  116.48
  -3  -5  -4 3497.08  107.16
  -3  -5  -4 3815.80  139.67
   3  -5   4 3658.65  121.68
  -3   5  -5 2383.74   81.85
   3   5   5 2193.67   77.63
  -3   5  -5 2303.43   73.67
  -3  -5  -5 2464.46   81.78
   3  -5   5 2344.23   73.53
  -3   5  -6 1303.14  121.72
   3   5   6 1365.36   59.09
  -3   5  -6 1316.15   83.75
  -3  -5  -6 1451.76  158.07
   3  -5   6 1384.02   63.88
  -3   5  -7  950.32   41.67
   3   5   7 1008.38  130.68
  -3   5  -7  992.77   74.70
  -3  -5  -7 1072.45   56.38
   3  -5   7  840.43  129.67
  -3   5  -8  140.33   27.04
   3   5   8  220.71   34.07
  -3   5  -8  144.63   26.64
  -3  -5  -8  171.16   27.80
   3  -5   8  123.75   27.87
  -3   5  -9   98.50   27.03
   3   5   9  103.60   29.65
   3  -5   9   40.27   18.29
  -3  -5  -9  122.39   26.43
   3   6 -12  209.26   33.35
  -3   6  12  296.75   46.01
  -3  -6  12  276.04   48.27
  -3   6  11  292.12   69.40
   3   6 -11  363.14   37.67
  -3  -6  11  412.48   38.15
   3  -6 -11  328.25   46.56
  -3   6  10   88.99   19.44
   3   6 -10   37.22   21.62
  -3  -6  10   65.09   18.90
   3  -6 -10   27.07    9.74
  -3   6   9  274.75   36.62
  -3   6   9  313.29   53.44
   3   6  -9  350.03   32.42
  -3  -6   9  324.42   47.88
   3  -6  -9  333.92   55.14
  -3   6   8  177.70   20.20
  -3   6   8  173.84   20.80
   3   6  -8  200.65   16.82
  -3  -6   8  206.99   25.58
   3  -6  -8  190.69   29.15
  -3   6   7  597.12   77.79
  -3   6   7  635.52   35.47
   3   6  -7  699.48   56.01
  -3  -6   7  650.85   97.36
   3  -6  -7  621.08   83.26
   3   6  -6  394.09   24.48
  -3   6   6  574.03   72.04
  -3   6   6  414.35   41.43
   3   6  -6  417.42   39.58
   3  -6  -6  416.10   30.09
  -3  -6   6  392.85   61.19
   3   6  -5  467.82   61.47
  -3   6   5  475.80   65.35
  -3   6   5  460.49   25.40
   3   6  -5  460.01   40.19
   3  -6  -5  526.22   72.60
  -3  -6   5  523.13   76.12
  -3   6   4 6055.10  147.68
   3   6  -4 6329.11  159.18
  -3   6   4 6186.02  156.96
   3   6  -4 6074.28  152.97
   3   6  -4 6356.88  156.76
   3  -6  -4 6160.61  159.77
  -3   6   3 2875.49   52.59
   3   6  -3 2815.72   67.85
  -3   6   3 2846.63   67.19
   3   6  -3 2815.51   61.31
   3   6  -3 2844.34   62.36
   3  -6  -3 2799.94   63.54
   3   6  -2 3137.73   65.80
  -3   6   2 3186.60   69.72
   3   6  -2 3170.33   66.69
   3   6  -2 3306.55   70.15
   3  -6  -2 3117.16   71.83
   3   6  -1 1904.15   46.23
  -3   6   1 1995.58   54.08
   3   6  -1 2051.54   92.12
   3   6  -1 1902.06   47.57
   3  -6  -1 1905.14   64.08
   3   6   0 2563.84   57.12
  -3   6   0 2476.81   88.23
  -3  -6   0 2649.78   50.13
  -3  -6   0 2613.15   60.24
   3  -6   0 2461.99   64.57
   3   6   1 1787.08   53.64
  -3   6  -1 1798.16   70.94
   3  -6   1 1825.79   58.42
  -3  -6  -1 1843.43   95.44
  -3  -6  -1 1879.73   47.70
  -3   6  -2  736.77   33.97
   3   6   2  739.48   31.03
   3  -6   2  714.94   41.14
  -3  -6  -2  712.57   23.22
  -3  -6  -2  789.59   96.14
   3  -6   2  723.97   26.66
  -3   6  -3  845.26   93.10
   3   6   3  793.41   33.30
   3  -6   3  745.34   70.49
  -3  -6  -3  860.63   37.54
   3  -6   3  924.49   92.15
  -3   6  -4  985.31   44.37
   3   6   4 1035.69   45.87
  -3   6  -4 1135.83   91.70
  -3  -6  -4 1114.04   49.36
   3  -6   4 1059.80   52.86
   3   6   5  126.33   20.82
  -3   6  -5   85.61   16.35
  -3   6  -5  128.28   14.90
  -3  -6  -5  123.75   14.51
  -3   6  -6 3226.88  148.59
   3   6   6 3504.36  160.34
  -3   6  -6 3369.34  152.10
  -3  -6  -6 3583.12  178.53
   3  -6   6 3274.82  163.94
  -3   6  -7  293.12   34.57
   3   6   7  307.87   55.18
  -3   6  -7  277.01   31.13
  -3  -6  -7  363.63   30.72
   3  -6   7  303.84   46.47
  -3   6  -8  701.34   47.03
   3   6   8  790.14   50.32
   3  -6   8  569.72   90.16
  -3  -6  -8  698.36   57.46
  -3   6  -9  126.93   33.26
   3   6   9  110.14   38.05
   3  -6   9   83.99   30.83
  -3  -6  -9  103.65   17.91
  -3   7  11   32.91   24.47
   3   7 -11   -0.12   14.51
  -3  -7  11    8.11   15.47
   3  -7 -11   -3.22   18.82
  -3   7  10  356.31   46.27
   3   7 -10  308.40   30.48
  -3  -7  10  348.33   51.35
   3  -7 -10  324.10   47.52
  -3   7   9  196.50   19.87
  -3   7   9  206.75   30.53
   3   7  -9  223.81   25.99
  -3  -7   9  212.83   35.13
   3  -7  -9  188.16   34.27
  -3   7   8  737.23   84.47
  -3   7   8  908.97  130.33
   3   7  -8  910.30   76.84
  -3  -7   8  907.17  112.12
   3  -7  -8  822.60   48.38
   3   7  -7  667.45   94.24
  -3   7   7  594.31   73.41
  -3  -7   7  690.63   66.22
   3  -7  -7  636.92   30.90
   3   7  -6  957.12   44.56
  -3   7   6  865.91   40.19
  -3   7   6  962.56   38.59
   3   7  -6  925.00   33.52
   3  -7  -6  945.58  118.08
  -3  -7   6  956.78  125.18
   3   7  -5 7078.11  241.91
  -3   7   5 7033.28  246.27
  -3   7   5 7260.60  248.99
   3   7  -5 7132.54  245.21
   3  -7  -5 7327.29  250.49
  -3  -7   5 7426.37  259.66
  -3   7   4  172.59   14.82
   3   7  -4  222.92   23.88
  -3   7   4  207.73   16.50
   3   7  -4  203.40   20.39
   3   7  -4  222.62   23.57
   3  -7  -4  184.12   30.17
  -3   7   3 4172.77   99.86
   3   7  -3 4211.54  110.56
  -3   7   3 4291.48  115.85
   3   7  -3 4485.11  213.95
   3   7  -3 4028.40  107.79
   3  -7  -3 4174.21  112.03
   3   7  -2  493.71   49.74
  -3   7   2  458.29   29.96
   3   7  -2  493.41   35.05
   3   7  -2  485.20   66.47
   3  -7  -2  432.25   78.40
   3   7  -1 1076.43   64.41
  -3   7   1 1100.92   97.11
   3   7  -1 1072.70   59.69
  -3  -7   1  992.44   37.05
   3  -7  -1  980.60   38.31
   3   7   0 1053.04   36.86
  -3   7   0 1009.24   42.19
  -3  -7   0 1019.21   31.60
   3  -7   0  990.30   39.36
   3   7   1 1579.39   60.34
  -3   7  -1 1627.42   63.10
   3  -7   1 1561.76   60.73
  -3  -7  -1 1583.12   62.07
  -3  -7  -1 1551.88   53.01
   3   7   2  362.84   56.05
  -3   7  -2  354.38   35.38
   3  -7   2  351.66   44.76
  -3  -7  -2  284.21   38.45
  -3  -7  -2  281.57   23.64
  -3   7  -3  341.12   32.09
   3   7   3  321.48   53.38
   3  -7   3  291.08   41.59
  -3  -7  -3  356.08   60.38
   3  -7   3  382.96   59.75
  -3   7  -4 1324.81  126.82
   3   7   4 1229.68   53.18
   3  -7   4 1219.25   55.86
  -3  -7  -4 1324.84  112.34
   3  -7   4 1251.29  108.80
  -3   7  -5   32.14   12.57
   3   7   5   30.59   18.04
  -3   7  -5   14.52    8.38
  -3  -7  -5   20.92    8.27
   3  -7   5   21.72    9.06
  -3   7  -6 1077.45  105.66
   3   7   6 1174.56   43.86
  -3   7  -6 1107.07   79.57
  -3  -7  -6 1059.20   88.22
   3  -7   6 1018.45   32.90
  -3   7  -7  284.41   32.91
   3   7   7  255.72   35.45
  -3   7  -7  249.30   43.23
  -3  -7  -7  309.95   29.23
   3  -7   7  237.71   45.09
  -3   7  -8  -18.82   20.50
   3   7   8   -3.34   17.94
   3  -7   8   16.14    6.19
  -3  -7  -8  -15.39   18.22
   3   7   9   21.81   23.85
  -3   7  -9   -6.10   22.39
  -3  -7  -9  -20.54   17.34
  -3   8  11  143.14   33.10
   3   8 -11  163.97   36.65
  -3  -8  11  156.56   32.84
   3  -8 -11  109.92   25.78
  -3   8  10  253.65   45.45
   3   8 -10  182.29   38.08
  -3  -8  10  185.27   44.12
   3  -8 -10  141.22   41.62
  -3   8   9  180.99   31.02
  -3   8   9  220.29   42.52
   3   8  -9  189.00   29.92
  -3  -8   9  197.84   49.58
   3  -8  -9  194.65   52.93
  -3   8   8  136.02   37.13
  -3   8   8  177.15   37.19
   3   8  -8  240.37   49.80
  -3  -8   8  227.83   34.76
   3  -8  -8  187.49   43.72
  -3   8   7  134.41   18.06
  -3   8   7  106.97   24.02
   3   8  -7  119.96   13.50
  -3  -8   7  111.56   22.42
   3  -8  -7   76.22   16.51
   3   8  -6  727.38   54.34
  -3   8   6  804.59   89.71
  -3   8   6  699.59   63.60
   3   8  -6  763.59   87.44
   3  -8  -6  695.75  118.67
  -3  -8   6  705.30   89.30
   3   8  -5 1015.27   89.29
  -3   8   5  867.66   75.67
   3   8  -5  943.65   28.69
   3  -8  -5  858.43   61.99
  -3  -8   5 1004.19   35.10
  -3   8   4 5254.89  180.70
   3   8  -4 5339.18  185.92
  -3   8   4 5470.35  192.34
   3   8  -4 5240.90  198.52
   3   8  -4 5286.03  188.24
   3  -8  -4 5444.82  190.09
   3   8  -3 2417.05  154.52
  -3   8   3 2192.93   86.72
   3   8  -3 2210.23   85.21
   3   8  -3 2347.48  180.35
   3  -8  -3 2358.09   91.01
   3   8  -2 2792.87   93.15
  -3   8   2 2637.19   93.52
   3   8  -2 2960.19  150.28
   3   8  -2 2706.47   93.29
   3  -8  -2 2629.13   94.60
   3   8  -1  792.30   30.24
  -3   8   1  803.66   36.61
   3   8  -1  910.64   91.60
  -3  -8   1  798.07   41.43
   3  -8  -1  839.50   40.99
   3   8   0 1092.62   42.79
  -3   8   0 1196.52   68.02
   3   8   0 1184.08   51.37
   3  -8   0 1218.47   79.83
  -3  -8   0 1176.19   40.44
   3   8   1 1207.82   33.13
  -3   8  -1 1090.67   78.20
   3  -8   1 1150.55   63.26
  -3  -8  -1 1081.54   55.15
  -3  -8  -1 1211.95   22.98
   3   8   2 1111.67   45.93
  -3   8  -2 1130.88   48.09
   3  -8   2 1089.87   50.44
  -3  -8  -2 1159.22   52.44
  -3  -8  -2 1070.41   35.35
   3   8   3  903.04  106.59
  -3   8  -3  977.00   63.22
  -3  -8  -3  904.74   70.39
   3  -8   3  873.62   96.21
   3   8   4  899.15   84.85
  -3   8  -4  931.84   60.14
  -3  -8  -4  875.10   94.20
   3  -8   4  897.65  108.79
  -3   8  -5  181.83   20.45
   3   8   5  139.71   25.31
   3  -8   5  149.08   19.26
  -3  -8  -5  188.59   25.95
   3  -8   5  198.27   28.32
   3   8   6  610.88   35.65
  -3   8  -6  745.34   55.94
  -3   8  -6  645.97   60.50
  -3  -8  -6  588.27   87.71
   3   8   7  175.15   37.21
  -3   8  -7  202.22   23.86
  -3   8  -7  169.46   30.09
  -3  -8  -7  207.50   39.66
   3   8   8  187.28   40.70
  -3   8  -8  210.81   50.53
  -3  -8  -8  174.50   40.49
  -3   9  10   55.92   23.58
   3   9 -10   68.61   29.49
  -3  -9  10  104.66   16.43
   3  -9 -10   47.85   23.68
  -3   9   9   89.79   26.62
  -3   9   9   76.34   19.98
   3   9  -9  127.37   34.50
  -3  -9   9  112.55   26.44
   3  -9  -9  106.46   26.82
  -3   9   8  153.51   33.60
  -3   9   8  182.54   33.17
   3   9  -8  237.36   25.89
  -3  -9   8  181.96   39.12
   3  -9  -8  188.12   38.08
  -3   9   7   79.41   21.91
  -3   9   7   73.66   10.78
   3   9  -7   99.20   20.57
  -3  -9   7   75.66   17.46
   3  -9  -7   94.08   16.69
   3   9  -6  452.99   63.16
  -3   9   6  443.19   46.52
  -3   9   6  425.19   37.38
   3   9  -6  480.58   73.93
   3  -9  -6  466.46   82.59
  -3  -9   6  480.26   70.07
   3   9  -5 1454.84   92.43
  -3   9   5 1449.30   57.40
   3   9  -5 1338.79   49.09
   3  -9  -5 1431.15   56.48
  -3  -9   5 1493.37   56.09
   3   9  -4  739.06   27.58
  -3   9   4  786.39   33.83
   3   9  -4  843.35   31.73
   3   9  -4  851.21   49.29
   3  -9  -4  807.21   96.99
   3   9  -3  653.10   55.00
  -3   9   3  563.70   49.27
   3   9  -3  592.41   54.12
   3   9  -3  674.09   81.72
   3  -9  -3  564.46   99.83
   3   9  -2  307.05   18.07
  -3   9   2  433.61   46.45
   3   9  -2  407.23   30.66
  -3  -9   2  343.84   42.84
   3  -9  -2  350.75   57.07
   3   9  -1 1130.72   42.61
  -3   9   1 1048.60   72.51
   3   9  -1 1168.33   62.37
  -3  -9   1 1003.62   29.01
   3  -9  -1  948.71  123.59
   3   9   0  103.39   12.98
  -3   9   0  105.37   17.04
   3   9   0  118.04   11.79
   3  -9   0  129.88   18.34
  -3  -9   0  116.94   14.34
   3   9   1  699.42   28.49
  -3   9  -1  792.88   50.50
  -3  -9  -1  739.15   20.81
   3  -9   1  702.78   99.46
   3   9   2  445.84   22.37
  -3   9  -2  398.56   27.81
  -3  -9  -2  426.59   49.56
   3  -9   2  428.20   57.64
   3   9   3 1563.18   87.49
  -3   9  -3 1436.75   74.48
  -3  -9  -3 1544.77   83.76
   3  -9   3 1683.93   95.12
   3   9   4  282.96   38.17
  -3   9  -4  259.72   40.03
  -3  -9  -4  223.55   33.44
   3  -9   4  274.72   41.13
   3   9   5  690.85   98.08
  -3   9  -5  577.24   79.95
  -3  -9  -5  648.38   81.65
   3  -9   5  626.71   64.12
   3   9   6  928.01  132.37
  -3   9  -6  831.40  104.91
  -3  -9  -6  909.59   92.17
   3  -9   6  850.47  126.74
   3   9   7  601.37   81.37
  -3   9  -7  489.22   36.77
  -3  -9  -7  616.02   87.70
   3   9   8  101.76   27.66
  -3   9  -8  101.07   25.17
  -3  -9  -8   91.14   26.28
   3  10  -9  503.82   74.64
  -3  10   9  395.76   61.15
  -3 -10   9  474.08   55.36
   3 -10  -9  391.48   75.33
   3  10  -8  228.84   42.03
  -3  10   8  222.93   28.75
  -3 -10   8  230.58   30.74
   3 -10  -8  190.83   38.19
   3  10  -7  231.06   23.96
  -3  10   7  179.05   34.33
  -3 -10   7  205.43   53.72
   3 -10  -7  270.39   23.88
   3  10  -6  339.17   39.77
  -3  10   6  284.53   34.84
   3  10  -6  275.49   32.57
   3 -10  -6  354.01   74.60
  -3 -10   6  305.58   50.05
   3  10  -5  560.97   39.46
  -3  10   5  599.95   51.64
   3  10  -5  559.18   85.80
   3 -10  -5  535.15   88.39
  -3 -10   5  537.97   95.36
   3  10  -4 1581.34   77.37
  -3  10   4 1633.51  128.97
   3  10  -4 1667.45   87.79
   3  10  -4 1693.08  102.70
   3 -10  -4 1576.53   95.36
   3  10  -3  444.46   41.15
  -3  10   3  436.10   59.34
   3  10  -3  479.11   67.71
  -3 -10   3  366.23   67.07
   3 -10  -3  412.29   37.08
   3  10  -2  996.47  105.36
  -3  10   2 1067.19   85.41
   3  10  -2 1034.70   71.25
  -3 -10   2  989.64   44.86
   3 -10  -2  882.54  132.65
   3  10  -1  445.82   65.10
  -3  10   1  524.41   71.36
   3  10  -1  442.22   61.92
  -3 -10   1  471.03   72.83
   3 -10  -1  384.15   70.65
   3  10   0  597.81   69.79
  -3  10   0  612.35   52.37
   3  10   0  633.46   66.68
  -3 -10   0  588.67   46.74
   3 -10   0  659.33   89.52
   3  10   1  809.40   57.17
  -3  10  -1  678.99   83.48
   3  10   1  619.55   54.86
   3 -10   1  622.22   79.41
  -3 -10  -1  604.30   62.80
   3  10   2 1622.72   77.37
  -3  10  -2 1535.87   78.74
  -3 -10  -2 1672.59  118.76
   3 -10   2 1788.98  123.22
   3  10   3  511.02   76.96
  -3  10  -3  447.28   47.98
  -3 -10  -3  432.44   58.53
   3 -10   3  513.53   51.84
   3  10   4  236.19   44.22
  -3  10  -4  311.04   33.80
  -3 -10  -4  301.47   52.17
   3 -10   4  337.99   46.21
   3  10   5   70.63   20.67
  -3  10  -5   73.63   12.80
  -3 -10  -5   97.53   22.89
   3 -10   5   96.16   22.12
   3  10   6  292.05   35.90
  -3  10  -6  307.59   54.65
  -3 -10  -6  279.88   50.52
   3 -10   6  280.40   45.31
   3 -10   7   67.08   26.14
  -3 -10  -7   92.48   19.97
   3  11  -8  395.82   38.35
  -3  11   8  308.16   53.56
  -3 -11   8  307.13   44.41
   3 -11  -8  289.78   62.26
   3  11  -7  182.59   43.76
  -3  11   7  118.76   27.90
  -3 -11   7  178.97   38.91
   3 -11  -7   82.21   18.24
   3  11  -6  221.61   35.64
  -3  11   6  207.59   35.51
   3  11  -6  166.30   27.73
   3 -11  -6  150.02   27.95
  -3 -11   6  163.58   30.37
   3  11  -5   99.88   18.11
  -3  11   5  178.07   35.08
   3  11  -5  101.10   16.37
   3 -11  -5  172.94   35.83
  -3 -11   5  144.48   25.15
   3  11  -4  237.19   31.12
  -3  11   4  244.40   36.82
  -3 -11   4  218.22   36.60
  -3 -11   4  232.33   43.87
   3 -11  -4  237.95   41.34
   3  11  -3  807.23   59.64
  -3  11   3  878.54   64.09
   3  11  -3  914.19   82.87
  -3 -11   3  864.78  129.40
   3 -11  -3  928.18  112.57
   3  11  -2  462.55   51.86
  -3  11   2  421.59   35.72
   3  11  -2  535.35   49.02
  -3 -11   2  437.52   49.08
   3 -11  -2  456.34   87.50
   3  11  -1  324.09   47.74
  -3  11   1  288.49   29.02
   3  11  -1  252.81   29.86
  -3 -11   1  297.88   41.51
   3 -11  -1  313.79   52.84
   3  11   0  522.82   34.23
  -3  11   0  671.93   60.71
   3  11   0  631.82   87.76
   3 -11   0  562.76   67.33
  -3 -11   0  450.72   66.52
   3  11   1  262.86   42.62
   3  11   1  236.00   35.42
  -3  11  -1  285.82   45.64
   3 -11   1  288.65   59.59
   3  11   2   46.82   10.07
  -3  11  -2   -2.03   17.96
  -3 -11  -2   94.36   20.50
   3 -11   2   42.97   13.24
   3  11   3   47.08   11.11
  -3  11  -3   88.12   18.21
  -3 -11  -3   25.12   20.60
   3 -11   3   63.16   23.46
   3  11   4  106.24   22.31
  -3  11  -4  108.89   31.20
  -3 -11  -4  160.81   31.18
   3 -11   4  161.95   32.85
   3  11   5  451.25   30.54
  -3  11  -5  399.82   56.08
  -3 -11  -5  381.01   47.20
   3 -11   5  376.52   56.53
   3  11   6   17.22   19.08
  -3  11  -6   37.17   12.88
  -3 -11  -6  -33.56   23.07
   3 -11   6   49.55   20.26
  -3  12   7  211.78   34.97
   3  12  -7  262.01   42.26
   3 -12  -7  184.65   42.81
   3  12  -6   44.91   15.09
  -3  12   6   91.34   29.68
  -3 -12   6   61.07   14.99
   3 -12  -6   26.29   12.80
   3  12  -5  126.13   27.77
  -3  12   5  110.36   28.62
  -3 -12   5   43.46   15.92
  -3 -12   5   75.79   13.69
   3 -12  -5   74.78   20.96
   3  12  -4  186.38   29.52
  -3  12   4  216.85   34.82
  -3 -12   4  240.46   50.42
  -3 -12   4  205.62   35.27
   3 -12  -4  164.94   34.81
   3  12  -3   53.67   12.74
   3  12  -3   49.14   10.60
  -3  12   3   38.62   12.84
  -3 -12   3   65.77   19.44
   3  12  -2  170.27   38.28
  -3  12   2  246.67   26.69
   3  12  -2  197.91   30.52
  -3 -12   2  194.77   39.54
   3 -12  -2  229.29   29.89
   3  12  -1  472.21   39.31
  -3  12   1  542.15   56.06
   3  12  -1  498.07   59.10
  -3 -12   1  472.66   87.26
   3 -12  -1  581.33   81.56
   3  12   0  739.43   92.60
   3  12   0  877.67   74.09
  -3  12   0  853.14   67.96
   3 -12   0 1004.16  115.55
   3  12   1  127.37   21.69
   3  12   1  133.26   25.16
  -3  12  -1  128.04   26.61
   3 -12   1  167.51   30.60
   3  12   2  478.08   36.79
  -3  12  -2  492.30   52.99
  -3 -12  -2  396.41   68.26
   3 -12   2  496.22   82.41
   3  12   3   12.53   10.50
  -3  12  -3   23.20   14.12
  -3 -12  -3   40.13   13.53
   3 -12   3   19.58   13.81
   3  12   4  253.00   52.40
  -3  12  -4  325.78   95.81
  -3 -12  -4  252.93   57.73
   3 -12   4  261.27   58.19
   3  12   5    6.39   10.17
  -3  12  -5   23.98   19.93
  -3 -12  -5   12.03   11.35
   3 -12   5  -17.61   21.92
  -3  13   6   59.77   10.99
   3 -13  -6   28.19   10.21
  -3 -13   6   37.57   18.76
  -3  13   5  339.34   51.59
   3  13  -5  325.01   43.97
  -3 -13   5  390.64   63.54
   3 -13  -5  268.23   49.01
  -3  13   4   -3.22   12.43
   3 -13  -4  -29.80   19.42
  -3 -13   4  -10.66   16.90
  -3  13   3   -1.26   19.28
   3  13  -3   40.07   10.33
  -3 -13   3   19.35    9.29
   3 -13  -3   55.44   17.59
  -3  13   2  167.36   37.35
   3  13  -2  199.18   55.33
  -3 -13   2  122.45   27.30
   3 -13  -2  157.36   42.26
   3  13  -1  153.41   25.78
   3  13  -1  175.86   34.47
  -3  13   1  165.73   27.44
   3 -13  -1  132.51   44.58
   3  13   0  -20.12   13.24
   3  13   0    4.27    7.95
  -3  13   0   13.24   22.81
   3 -13   0   22.78   14.35
   3  13   1  578.56   81.55
  -3  13  -1  775.74   42.48
   3 -13   1  769.58  120.03
   3  13   2   77.82   24.42
  -3  13  -2   85.66   28.30
  -3 -13  -2   62.78   19.39
   3 -13   2   75.89   21.31
  -3  13  -3  324.59   37.22
  -3 -13  -3  411.89   54.32
   3 -13   3  341.74   52.88
   3  14  -3   50.91   10.19
  -3  14   3   46.34   13.52
   3 -14  -3   -5.95   19.96
   3  14  -2   77.36   30.61
  -3  14   2  104.02   16.92
   3 -14  -2  122.48   23.27
   3  14  -1   87.47   32.63
  -3  14   1   94.25   29.96
   3 -14  -1   91.45   28.87
   3  14   0  480.61   60.27
  -3  14   0  473.87   43.55
   3 -14   0  391.46   61.43
  -3  14  -1  120.68   31.53
  -3 -14  -1  117.54   34.36
   3 -14   1  115.22   40.37
  -4   0  13   34.41   13.44
   4   0 -13   53.62   11.36
  -4   0  12   95.79   18.47
   4   0 -12   91.37   16.34
  -4   0  11  816.06  106.73
   4   0 -11  832.63   88.73
  -4   0  10   32.40   17.77
   4   0 -10   41.94   21.27
  -4   0   9 2067.53   78.74
   4   0  -9 1981.80  182.28
  -4   0   8  175.22   32.94
   4   0  -8  197.58   19.48
  -4   0   7 3264.49  136.34
   4   0  -7 3018.95   87.13
  -4   0   6 2593.21   59.59
   4   0  -6 2742.51   63.60
  -4   0   6 2723.65   48.89
  -4   0   5  234.65   32.91
   4   0  -5  252.92   27.03
  -4   0   5  227.76   27.45
  -4   0   4 1057.74   44.25
   4   0  -4  945.47   39.85
  -4   0   4 1040.93   39.69
   4   0  -3  434.06   42.85
   4   0  -3  412.74   23.37
  -4   0   3  356.09   15.68
   4   0  -2  465.70   23.97
   4   0  -2  522.79   19.28
  -4   0   2  480.29   18.70
   4   0  -1 1234.33   36.50
   4   0  -1 1249.82   35.39
  -4   0   1 1195.10   37.55
   4   0   0  762.17   76.34
   4   0   0  703.94   22.04
  -4   0   0  713.51   27.22
   4   0   115676.12  197.14
   4   0   115550.11  188.50
  -4   0  -115333.88  197.96
   4   0   2 1859.94   72.53
   4   0   2 1853.68   66.91
  -4   0  -2 1820.38   73.93
   4   0   3 2531.80   57.89
  -4   0  -3 2440.95   64.04
  -4   0  -3 2573.02   67.98
   4   0   4 1876.68   68.31
  -4   0  -4 1916.58   64.40
  -4   0  -4 1977.63  137.54
   4   0   5   29.10   21.28
  -4   0  -5   76.47   13.16
  -4   0  -5   78.30   11.31
   4   0   6 2579.99   94.55
  -4   0  -6 2565.47   87.00
  -4   0  -6 2655.16   91.66
   4   0   7   15.86   20.47
  -4   0  -7   23.57   12.94
  -4   0  -7   43.53   17.08
   4   0   8 1027.64   88.65
  -4   0  -8  951.93   89.42
  -4   0  -8 1035.10   36.47
   4   0   9   14.70   24.70
  -4   0  -9   15.28   15.01
   4   0  10  821.94  124.87
  -4   1  13   88.60   30.51
   4   1 -13   75.78   24.45
  -4  -1  13  129.12   32.31
   4  -1 -13  109.29   23.22
   4   1 -12  965.99  105.02
  -4   1  12 1079.46  135.30
  -4  -1  12  988.30  145.96
   4  -1 -12  916.56   50.71
   4   1 -11   27.97   11.32
   4  -1 -11   22.24   20.00
  -4  -1  11   68.96   16.59
  -4   1  10 1250.20  152.67
   4   1 -10 1236.35   67.29
   4  -1 -10 1423.61  115.31
  -4  -1  10 1197.55  159.13
  -4   1   9  193.87   28.83
   4   1  -9  181.23   20.47
  -4  -1   9  185.60   19.29
   4  -1  -9  230.54   34.01
  -4   1   8  881.52  105.38
   4   1  -8  865.76   72.38
   4  -1  -8  854.78   97.69
  -4  -1   8  807.12   95.75
  -4   1   7   77.22   13.95
  -4   1   7   78.98    7.46
   4   1  -7   78.05   13.78
   4  -1  -7   94.60   13.92
  -4   1   6 8636.84  147.22
  -4   1   6 8560.87  154.86
   4   1  -6 8358.61  156.76
  -4  -1   6 8616.23  158.17
   4  -1  -6 8590.67  157.50
  -4   1   5  218.20   12.80
  -4   1   5  178.70   24.74
   4   1  -5  227.77   30.27
   4  -1  -5  228.55   31.04
  -4  -1   5  163.67   20.37
  -4  -1   5  215.76   28.58
  -4   1   4 9082.25  124.99
   4   1  -4 8985.44  130.33
   4   1  -4 8996.28  121.65
  -4   1   4 8966.34  115.74
   4  -1  -4 9236.92  125.45
  -4  -1   4 9135.46  115.05
   4   1  -3  860.08   30.50
   4   1  -3  842.76   28.45
  -4   1   3  871.23   31.98
   4  -1  -3  838.34   28.90
  -4  -1   3  854.53   33.05
   4  -1  -3  798.41   26.08
  -4   1   211130.52  139.58
   4   1  -211241.40  140.92
   4   1  -211363.04  137.75
   4  -1  -211500.84  142.32
  -4  -1   211456.53  142.12
   4  -1  -211786.02  144.03
  -4   1   1   22.30   10.52
   4   1  -1   30.74   11.09
   4   1  -1   43.79    6.94
   4  -1  -1   28.00    5.11
  -4  -1   1   40.81    7.24
   4  -1  -1   33.05    4.89
  -4   1   0 3477.36   57.83
   4   1   0 3566.80   57.11
   4  -1   0 3497.39   53.25
  -4  -1   0 3504.24   58.03
   4  -1   0 3438.74   54.23
  -4   1  -1  505.26   27.95
   4   1   1  496.83   35.24
   4   1   1  538.02   21.27
   4  -1   1  480.28   21.00
  -4  -1  -1  519.90   70.40
   4  -1   1  517.03   60.25
  -4   1  -2 4742.52   80.32
   4   1   2 4665.95   74.33
   4   1   2 4557.61   60.89
   4  -1   2 4567.24   67.33
  -4  -1  -2 4527.74   73.29
   4  -1   2 4593.26   70.08
  -4   1  -3  727.24   36.48
   4   1   3  714.94   72.14
  -4   1  -3  675.88   42.73
  -4  -1  -3  660.82   27.31
  -4  -1  -3  695.72   82.31
   4  -1   3  665.89   32.54
  -4   1  -4 1532.56  128.67
   4   1   4 1355.04   55.55
  -4   1  -4 1316.55   47.72
  -4  -1  -4 1229.80   44.05
  -4  -1  -4 1325.24   53.78
   4  -1   4 1362.00   55.15
  -4   1  -5  440.14   50.33
   4   1   5  402.68   53.04
  -4   1  -5  370.32   23.67
  -4  -1  -5  327.65   26.64
  -4  -1  -5  351.45   45.78
   4  -1   5  383.04   46.04
   4   1   6  886.13   45.00
  -4   1  -6  806.79   36.84
  -4   1  -6  684.51   67.18
   4  -1   6  817.69   50.01
  -4  -1  -6  841.80   94.04
  -4  -1  -6  847.94   34.39
  -4   1  -7  433.74   44.07
   4   1   7  476.57   64.33
  -4   1  -7  402.04   40.04
  -4  -1  -7  415.87   23.78
  -4  -1  -7  482.31   58.99
   4  -1   7  466.18   62.43
   4   1   8  161.83   36.51
  -4   1  -8  161.55   32.77
  -4   1  -8  216.89   35.64
  -4  -1  -8  174.67   30.53
  -4  -1  -8  196.22   37.32
   4  -1   8  161.02   29.55
   4   1   9 1003.93  165.79
  -4   1  -9  919.99   99.60
   4  -1   9 1008.62  121.18
  -4  -1  -9  926.39  116.65
  -4   2  13  212.38   34.86
   4   2 -13  259.48   45.10
  -4  -2  13  297.44   61.52
   4  -2 -13  268.23   36.18
  -4   2  12  688.22   71.92
   4   2 -12  702.85   73.29
  -4  -2  12  746.33  115.06
   4  -2 -12  689.42   39.49
  -4   2  11 2091.70  303.41
   4   2 -11 2059.37  319.58
  -4  -2  11 1929.42  214.72
   4  -2 -11 1928.68  182.94
  -4   2  10  532.75   55.23
   4   2 -10  554.42   62.99
  -4  -2  10  502.05   81.13
   4  -2 -10  481.16   70.51
  -4   2   9 2877.08  120.05
   4   2  -9 2631.61   95.07
  -4  -2   9 2808.23  108.12
   4  -2  -9 2726.73   96.76
   4   2  -8   56.17   13.66
  -4   2   8   68.17   10.79
  -4  -2   8   52.97    8.25
  -4   2   7  661.56   42.02
  -4   2   7  750.01   31.29
   4   2  -7  793.13   78.23
  -4  -2   7  760.97  102.07
   4  -2  -7  778.09   81.66
  -4   2   6  515.23   41.94
  -4   2   6  502.93   68.04
   4   2  -6  575.85   72.08
  -4  -2   6  468.31   73.52
   4  -2  -6  478.28   72.38
  -4   2   5 5533.49   99.27
  -4   2   5 5347.08  104.17
   4   2  -5 5313.37  109.57
   4  -2  -5 5643.09  107.70
  -4  -2   5 5606.75   95.20
  -4  -2   5 5580.28  107.56
  -4   2   4 6880.30  102.98
   4   2  -4 6972.16  100.41
   4   2  -4 7141.06  100.35
  -4   2   4 6888.91   97.34
   4  -2  -4 6969.49  100.22
  -4  -2   4 6985.66   90.85
  -4   2   3 3522.16   53.92
   4   2  -3 3499.59   57.65
   4   2  -3 3524.08   54.23
  -4   2   3 3484.67   55.53
   4  -2  -3 3607.82   60.76
  -4  -2   3 3546.65   52.89
   4   2  -2  159.01   19.28
   4   2  -2  156.95   15.79
  -4   2   2  162.54   17.67
   4  -2  -2  174.97   18.43
  -4  -2   2  183.10   23.88
   4  -2  -2  141.30   12.34
   4   2  -1 7013.34   97.82
   4   2  -1 7137.85   90.39
  -4   2   1 6976.69  104.61
   4  -2  -1 7214.16  111.14
  -4  -2   1 7235.35  104.13
   4  -2  -1 7290.79   94.07
   4   2   0 2279.58   83.84
   4   2   0 2331.28   79.50
  -4   2   0 2287.47   85.37
   4  -2   0 2265.32   82.21
  -4  -2   0 2308.96   85.50
   4  -2   0 2310.43   82.07
  -4   2  -110902.11  147.22
   4   2   110694.30  144.96
   4  -2   110910.69  139.50
  -4  -2  -111049.95  149.17
   4  -2   110879.98  153.10
  -4   2  -2 2682.15   67.71
   4   2   2 2775.91   61.93
   4   2   2 2642.10   45.78
   4  -2   2 2818.13   58.76
  -4  -2  -2 2748.46   61.70
   4  -2   2 2885.21   58.95
  -4   2  -3  805.08   31.88
   4   2   3  782.48   46.78
  -4   2  -3  883.07   74.63
  -4  -2  -3  854.28   24.25
  -4  -2  -3  879.44   34.18
   4  -2   3  796.29   30.11
  -4   2  -4  696.93   28.86
   4   2   4  719.12   30.68
  -4   2  -4  813.62   60.66
  -4  -2  -4  696.24   42.49
  -4  -2  -4  786.01  100.78
   4  -2   4  712.42   33.50
  -4   2  -5  235.30   26.36
   4   2   5  224.76   22.92
  -4   2  -5  210.20   19.00
  -4  -2  -5  150.29   16.03
  -4  -2  -5  170.21   16.73
   4  -2   5  223.64   35.20
   4   2   6  193.57   25.33
  -4   2  -6  116.31   16.28
  -4   2  -6  185.13   23.00
  -4  -2  -6  107.96   11.75
  -4  -2  -6  138.26   17.22
  -4   2  -7  189.90   33.95
   4   2   7  208.96   46.65
  -4   2  -7  224.86   31.36
  -4  -2  -7  235.20   25.65
   4  -2   7  193.48   33.02
  -4   2  -8  672.48   73.93
   4   2   8  715.19  122.59
  -4   2  -8  694.61   39.95
  -4  -2  -8  694.37   86.17
   4  -2   8  733.42   69.43
  -4   2  -9   54.09   12.64
   4   2   9   58.74   15.48
   4  -2   9  108.02   27.35
  -4  -2  -9   62.89   17.85
  -4   3  12  168.36   41.94
   4   3 -12  154.27   38.59
  -4  -3  12   98.47   31.12
   4  -3 -12  182.61   40.77
  -4   3  11   95.42   18.71
   4   3 -11   65.85   18.81
  -4  -3  11   74.28   23.11
   4  -3 -11   59.74   15.36
  -4   3  10  289.39   34.76
   4   3 -10  283.50   28.76
  -4  -3  10  271.01   42.32
   4  -3 -10  329.90   35.33
  -4   3   9  904.34   36.85
   4   3  -9  882.83   79.65
  -4  -3   9  753.51  100.15
   4  -3  -9  825.90   77.52
  -4   3   8 1019.94   66.23
  -4   3   8 1121.35  121.28
   4   3  -8 1054.05   35.99
  -4  -3   8  979.01  133.26
   4  -3  -8  995.73   70.24
  -4   3   7  112.92   12.87
  -4   3   7  136.79   17.50
   4   3  -7  122.94   15.57
  -4  -3   7  143.48   24.29
   4  -3  -7  143.42   18.24
  -4   3   6 1123.18   34.54
  -4   3   6 1056.11   46.67
   4   3  -6 1120.26  106.99
  -4  -3   6 1053.87   38.34
   4  -3  -6 1005.39   36.50
  -4   3   5  964.95   83.60
  -4   3   5  902.01   92.40
   4   3  -5  948.13   94.83
   4  -3  -5  870.26   40.38
  -4  -3   5  866.97   33.15
  -4  -3   5  893.88   45.20
  -4   3   410433.00  135.16
   4   3  -410447.21  142.34
   4   3  -410380.98  138.62
  -4   3   410570.55  140.33
   4  -3  -410552.65  144.57
  -4  -3   410681.98  135.12
  -4   3   3 9765.98  124.57
   4   3  -3 9924.05  134.55
   4   3  -310171.09  132.20
  -4   3   310032.04  135.15
   4  -3  -3 9978.19  134.63
  -4  -3   3 9933.40  132.82
   4   3  -2 3605.12   59.13
   4   3  -2 3647.04   52.87
  -4   3   2 3641.85   61.50
   4  -3  -2 3732.06   60.29
  -4  -3   2 3669.05   63.55
   4  -3  -2 3760.08   52.23
   4   3  -1 3191.44  116.68
   4   3  -1 3189.54  111.68
  -4   3   1 3338.64   58.56
   4  -3  -1 3181.08  115.12
  -4  -3   1 3228.20   54.28
   4  -3  -1 3188.15  113.21
   4   3   0 3779.04   63.89
  -4   3   0 3549.98   61.26
   4  -3   0 3694.56   51.71
  -4  -3   0 3590.53   61.01
   4  -3   0 3727.12   82.28
  -4   3  -1 1031.91   45.33
   4   3   1 1189.82  107.63
   4  -3   1 1042.84   40.57
  -4  -3  -1 1028.50   43.48
   4  -3   1 1035.77   56.07
  -4   3  -2 8923.53  173.25
   4   3   2 8640.12  158.26
   4  -3   2 8744.33  151.66
  -4  -3  -2 8803.28  161.82
   4  -3   2 8814.05  156.65
  -4   3  -3  779.71   87.83
   4   3   3  669.59   30.62
   4  -3   3  757.23   30.17
  -4  -3  -3  783.46   98.97
   4  -3   3  708.96   38.13
  -4   3  -4 2445.46   87.51
   4   3   4 2515.55   89.22
  -4   3  -4 2468.60   86.70
  -4  -3  -4 2484.58   86.60
   4  -3   4 2387.19   95.77
  -4   3  -5 2790.91   87.71
   4   3   5 2750.37   93.51
  -4   3  -5 2833.43  120.59
  -4  -3  -5 2832.52   92.36
   4  -3   5 2722.79   86.16
  -4   3  -6  780.73   67.51
   4   3   6  763.70  157.09
  -4   3  -6  856.18   55.16
  -4  -3  -6  875.55   97.68
   4  -3   6  768.13  117.63
  -4   3  -7  209.97   29.83
   4   3   7  277.06   42.13
  -4   3  -7  280.59   39.74
  -4  -3  -7  288.65   38.78
   4  -3   7  273.00   48.97
  -4   3  -8   46.96   19.15
   4   3   8   75.89   24.62
  -4   3  -8   75.82   16.04
  -4  -3  -8   76.09   21.17
   4  -3   8   36.66   14.24
  -4   3  -9  515.88   35.38
   4   3   9  598.02   52.79
   4  -3   9  447.84   76.44
  -4  -3  -9  500.35   58.22
  -4   4  12  953.21  125.32
   4   4 -12  760.36  134.69
  -4  -4  12  936.66  157.80
   4  -4 -12  837.45   42.26
  -4   4  11  868.05   94.01
   4   4 -11  992.43   81.98
  -4  -4  11 1015.27  121.52
   4  -4 -11  970.28  104.43
  -4   4  10 1193.62  125.15
   4   4 -10 1101.35   56.26
  -4  -4  10 1212.38  155.44
   4  -4 -10 1200.35  146.85
  -4   4   9 2185.11  209.34
   4   4  -9 2035.26  190.42
  -4  -4   9 1974.54   96.79
   4  -4  -9 1810.14  193.01
  -4   4   8  688.90   57.66
  -4   4   8  786.27   83.72
   4   4  -8  687.42   61.41
  -4  -4   8  795.35  105.04
   4  -4  -8  742.20  107.15
  -4   4   7  379.17   28.55
  -4   4   7  424.77   63.45
   4   4  -7  418.96   39.66
  -4  -4   7  360.22   52.67
   4  -4  -7  423.43   29.84
  -4   4   6 1488.38   46.50
  -4   4   6 1521.85   92.38
   4   4  -6 1429.18   57.32
   4  -4  -6 1488.42   50.77
  -4  -4   6 1440.40   39.39
  -4  -4   6 1509.66   51.60
  -4   4   5 1575.88   41.83
  -4   4   5 1668.85   64.29
   4   4  -5 1489.42   41.30
   4  -4  -5 1557.18   45.94
  -4  -4   5 1516.28   32.50
  -4  -4   5 1632.47   47.54
  -4   4   4 1414.99   32.33
   4   4  -4 1387.51   39.82
   4   4  -4 1360.60   36.62
  -4   4   4 1312.39   42.14
   4  -4  -4 1316.68   48.01
  -4  -4   4 1347.80   37.96
  -4   4   3 2642.45   93.73
   4   4  -3 2584.08   95.80
   4   4  -3 2573.76   92.69
  -4   4   3 2692.69   99.59
   4  -4  -3 2589.55   95.50
  -4  -4   3 2657.64   95.62
  -4   4   2  939.79   34.38
   4   4  -2 1052.28   93.37
   4   4  -2 1097.86   71.74
  -4   4   2  950.86   42.12
   4  -4  -2  961.69   48.08
  -4  -4   2  992.41   40.78
   4   4  -1 3605.85   61.10
   4   4  -1 3707.36   50.48
  -4   4   1 3501.18   96.90
   4  -4  -1 3859.23   64.16
  -4  -4   1 3778.41   63.07
   4  -4  -1 3801.40   49.46
   4   4   0 1209.63   72.71
  -4   4   0 1059.96   45.29
   4  -4   0 1026.84   37.40
  -4  -4   0 1008.60   42.91
   4  -4   0 1022.39   42.67
  -4   4  -1 2526.54   67.92
   4   4   1 2632.05   61.00
   4  -4   1 2541.80   48.38
  -4  -4  -1 2556.15   59.08
   4  -4   1 2546.70   58.16
  -4   4  -2 2928.37   82.87
   4   4   2 2728.97   78.07
   4  -4   2 2914.52   75.41
  -4  -4  -2 2853.33   82.48
   4  -4   2 2977.73   82.76
  -4   4  -3 3403.51  114.57
   4   4   3 3488.11  115.78
   4  -4   3 3496.50  110.80
  -4  -4  -3 3456.41  117.57
   4  -4   3 3456.44  135.83
  -4   4  -4 3880.27  142.40
   4   4   4 3870.08  141.26
  -4   4  -4 3864.88  137.59
  -4  -4  -4 4036.70  159.93
   4  -4   4 4003.87  145.20
  -4   4  -5 1068.99   98.51
   4   4   5 1072.01  118.83
  -4   4  -5 1280.08  111.47
  -4  -4  -5 1039.28   45.64
   4  -4   5 1035.26   49.38
  -4   4  -6  119.77   16.19
   4   4   6  115.18   17.43
  -4   4  -6  136.51   26.20
  -4  -4  -6  182.12   24.81
   4  -4   6  110.77   19.30
  -4   4  -7  405.27   30.83
   4   4   7  406.45   54.13
  -4   4  -7  388.81   52.27
  -4  -4  -7  450.18   54.23
   4  -4   7  366.39   66.19
  -4   4  -8  199.75   23.20
   4   4   8  258.84   41.81
  -4   4  -8  183.23   36.72
  -4  -4  -8  196.18   39.94
   4  -4   8  193.47   41.98
  -4   4  -9  431.43   32.94
   4   4   9  440.77   68.83
   4  -4   9  389.93   71.98
  -4  -4  -9  377.92   60.61
  -4   5  12  304.55   52.15
   4   5 -12  286.29   42.18
  -4  -5  12  314.92   72.14
   4  -5 -12  268.76   41.64
  -4   5  11  227.93   35.19
   4   5 -11  278.05   29.38
  -4  -5  11  266.88   43.12
   4  -5 -11  294.92   41.16
  -4   5  10 1083.16  154.10
   4   5 -10 1154.05  117.30
  -4  -5  10 1194.18  147.82
   4  -5 -10 1068.18  133.95
  -4   5   9  476.28   53.58
  -4   5   9  642.60   71.36
   4   5  -9  607.43   64.37
  -4  -5   9  634.07   98.61
   4  -5  -9  648.93   87.95
  -4   5   8  520.05   53.35
  -4   5   8  587.24   65.17
   4   5  -8  566.37   61.24
  -4  -5   8  564.44   65.85
   4  -5  -8  533.62   32.36
  -4   5   7 1856.79   60.79
  -4   5   7 2016.12   66.22
   4   5  -7 1930.68  170.38
  -4  -5   7 2016.22   72.69
   4  -5  -7 1963.94   69.33
  -4   5   6 3360.17  109.83
  -4   5   6 3364.17  108.40
   4   5  -6 3320.16  112.39
   4  -5  -6 3229.73  109.25
  -4  -5   6 3105.22   98.43
  -4  -5   6 3349.44  113.47
  -4   5   5  108.51   16.77
   4   5  -5  117.07   14.12
   4   5  -5   78.44   17.62
  -4   5   5  104.97   10.94
   4  -5  -5   86.02   13.88
  -4  -5   5  107.53   17.34
  -4   5   4 4603.95  113.48
   4   5  -4 4503.26  117.69
   4   5  -4 4393.69  117.84
  -4   5   4 4432.34  115.71
   4  -5  -4 4718.95  122.37
  -4  -5   4 4678.67  116.38
  -4   5   3 3379.87   60.02
   4   5  -3 3480.08   74.49
   4   5  -3 3404.55   68.16
  -4   5   3 3470.25   75.17
   4  -5  -3 3307.72   70.49
  -4  -5   3 3345.59   67.26
   4   5  -2 4266.68   90.31
   4   5  -2 4201.70   77.77
  -4   5   2 4313.95   88.49
   4  -5  -2 4307.44   85.75
  -4  -5   2 4389.73   86.24
   4   5  -1 3288.51   70.25
   4   5  -1 3302.54   60.12
  -4   5   1 3248.43   71.34
   4  -5  -1 3053.08   66.18
  -4  -5   1 3226.03   69.38
   4   5   0  623.84   30.36
  -4   5   0  644.59   33.61
   4  -5   0  602.85   87.67
   4  -5   0  591.00   21.95
  -4  -5   0  609.59   95.69
  -4  -5   0  629.41   23.33
  -4   5  -1  435.95   48.04
   4   5   1  540.02   59.48
   4  -5   1  473.65   19.05
  -4  -5  -1  481.32   66.50
   4  -5   1  507.89   66.43
  -4   5  -2  230.73   21.63
   4   5   2  177.96   16.23
   4  -5   2  209.33   34.24
  -4  -5  -2  201.39   29.42
   4  -5   2  188.94   28.31
  -4   5  -3 1817.83   72.22
   4   5   3 1983.66  138.77
   4  -5   3 1930.71   70.96
  -4  -5  -3 1885.53   75.87
   4  -5   3 2054.03   86.91
  -4   5  -4 1969.99   67.01
   4   5   4 1956.08   69.79
   4  -5   4 2008.95   64.08
  -4  -5  -4 1951.72   74.26
   4  -5   4 2059.81   99.49
  -4   5  -5 1425.59   56.63
   4   5   5 1418.31   56.84
  -4   5  -5 1538.24   95.80
  -4  -5  -5 1509.97   84.26
   4  -5   5 1484.52   54.24
  -4   5  -6  407.33   40.13
   4   5   6  484.34   61.68
  -4   5  -6  516.51   65.52
  -4  -5  -6  444.34   44.86
   4  -5   6  363.66   50.45
  -4   5  -7  361.83   26.53
   4   5   7  361.81   57.57
  -4   5  -7  328.88   23.32
  -4  -5  -7  443.05   42.67
   4  -5   7  300.09   44.78
  -4   5  -8  283.67   36.16
   4   5   8  268.82   54.80
  -4   5  -8  322.34   38.91
  -4  -5  -8  238.54   36.31
   4  -5   8  247.50   49.00
  -4   5  -9   84.29   30.01
   4   5   9   72.57   37.43
   4  -5   9   77.14   15.46
  -4  -5  -9   87.80   25.48
  -4   6  12  267.57   46.36
   4   6 -12  294.64   49.68
  -4  -6  12  314.63   66.17
   4  -6 -12  316.83   59.89
  -4   6  11  317.25   59.56
   4   6 -11  330.32   48.84
  -4  -6  11  347.80   51.36
   4  -6 -11  364.84   53.52
  -4   6  10  404.51   49.84
   4   6 -10  378.57   44.23
  -4  -6  10  426.62   63.44
   4  -6 -10  397.28   54.85
  -4   6   9  187.24   29.59
  -4   6   9  249.80   46.94
   4   6  -9  187.41   30.15
  -4  -6   9  253.42   45.79
   4  -6  -9  219.55   29.49
  -4   6   8  852.37   80.05
  -4   6   8  952.86  135.00
   4   6  -8  993.60   97.83
  -4  -6   8 1031.54  152.64
   4  -6  -8  966.50   53.94
  -4   6   7 1122.62  101.52
  -4   6   7 1182.16  127.07
   4   6  -7 1218.58  112.59
  -4  -6   7 1337.35  156.07
   4  -6  -7 1141.89   50.40
  -4   6   6 1195.91  132.84
  -4   6   6 1278.98  111.86
   4   6  -6 1394.56  135.44
   4  -6  -6 1271.89   59.13
  -4  -6   6 1269.83   50.91
  -4  -6   6 1383.24   60.52
  -4   6   5  133.90   28.37
   4   6  -5  170.20   20.28
   4   6  -5  118.71   15.67
  -4   6   5  105.54   17.01
   4  -6  -5  113.26   16.17
  -4  -6   5  128.33   15.82
  -4   6   4  249.02   23.03
   4   6  -4  245.65   25.02
   4   6  -4  254.29   31.08
  -4   6   4  234.03   26.88
   4  -6  -4  245.84   41.91
  -4  -6   4  265.58   34.02
  -4   6   3  181.78   17.80
   4   6  -3  249.39   24.46
   4   6  -3  220.74   18.01
  -4   6   3  186.47   25.25
   4  -6  -3  284.26   32.46
  -4  -6   3  234.29   36.41
   4   6  -2 3176.81   86.59
   4   6  -2 3215.87   83.30
  -4   6   2 3288.99   91.47
   4  -6  -2 3346.25   92.03
  -4  -6   2 3460.77   93.04
   4   6  -1 3321.16   90.53
  -4   6   1 3172.87  103.10
  -4  -6   1 3256.50   90.18
   4  -6  -1 3161.81   87.62
   4   6   0  773.25   90.40
  -4   6   0  674.41   30.57
  -4  -6   0  692.44   24.41
  -4  -6   0  734.97   31.92
   4  -6   0  687.24   84.63
   4   6   1  680.59   50.82
  -4   6  -1  704.58   68.83
  -4  -6  -1  681.44   83.33
   4  -6   1  688.54   79.32
  -4   6  -2 3622.88  120.94
   4   6   2 3399.85  115.17
   4  -6   2 3372.49  106.56
  -4  -6  -2 3599.85  121.47
   4  -6   2 3651.82  121.99
  -4   6  -3 1309.50   53.95
   4   6   3 1400.88  143.95
   4  -6   3 1278.15   42.75
  -4  -6  -3 1251.21  126.27
   4  -6   3 1236.56   57.90
  -4   6  -4 1363.88   56.23
   4   6   4 1305.05   66.38
   4  -6   4 1355.46   50.02
  -4  -6  -4 1451.92  157.80
   4  -6   4 1365.81  137.48
   4   6   5  216.34   27.85
  -4   6  -5  245.99   30.90
   4  -6   5  196.97   34.14
  -4  -6  -5  218.20   28.54
  -4   6  -6  248.30   43.58
   4   6   6  243.45   37.24
  -4   6  -6  201.20   28.52
  -4  -6  -6  266.56   43.79
   4  -6   6  174.87   28.75
  -4   6  -7  230.74   45.01
   4   6   7  296.25   42.86
  -4   6  -7  293.57   28.65
  -4  -6  -7  262.03   41.47
   4  -6   7  274.15   43.35
  -4   6  -8  236.63   50.20
   4   6   8  159.19   36.25
   4  -6   8  118.78   35.31
  -4  -6  -8  161.93   40.97
  -4   7  11  264.92   59.62
   4   7 -11  258.75   52.60
  -4  -7  11  210.23   51.70
   4  -7 -11  166.96   36.81
  -4   7  10   52.85   12.05
   4   7 -10   25.36   16.20
  -4  -7  10   42.83   15.51
   4  -7 -10   41.55   10.39
  -4   7   9  496.06   80.57
  -4   7   9  546.86   68.94
   4   7  -9  625.41   55.76
  -4  -7   9  560.85   82.06
   4  -7  -9  596.61   36.78
  -4   7   8  497.72   39.54
  -4   7   8  489.91   91.23
   4   7  -8  598.73   64.38
  -4  -7   8  559.38   87.84
   4  -7  -8  620.32   82.93
  -4   7   7  597.37   72.75
  -4   7   7  657.42   89.99
   4   7  -7  581.57   48.46
  -4  -7   7  641.30  103.10
   4  -7  -7  606.38   35.41
  -4   7   6 1017.40   45.58
  -4   7   6  993.75   61.15
   4   7  -6 1050.01  102.18
   4  -7  -6  995.38   41.45
  -4  -7   6  860.97   97.15
  -4  -7   6 1074.86  105.47
  -4   7   5  608.60   33.38
   4   7  -5  728.76   64.36
   4   7  -5  647.41   35.52
  -4   7   5  738.89   39.35
   4  -7  -5  711.38   69.96
  -4  -7   5  630.75   79.82
   4   7  -4 3784.54  216.99
   4   7  -4 3313.46  127.35
  -4   7   4 3423.61  124.97
   4  -7  -4 3379.50  122.07
  -4  -7   4 3358.23  118.51
   4   7  -3  368.11   47.03
   4   7  -3  308.46   20.39
  -4   7   3  348.66   42.10
   4  -7  -3  329.93   53.39
  -4  -7   3  335.83   48.51
   4   7  -210599.88  322.34
   4   7  -210661.11  321.02
  -4   7   210586.88  325.28
   4  -7  -210655.36  324.31
  -4  -7   210806.22  312.50
   4   7  -1  249.88   28.48
  -4   7   1  230.71   21.41
  -4  -7   1  167.51   29.71
  -4  -7   1  217.25   33.94
   4  -7  -1  157.04   21.58
   4   7   0 2635.15   90.01
  -4   7   0 2865.70  198.05
  -4  -7   0 2557.93   79.75
  -4  -7   0 2597.06   93.39
   4  -7   0 2551.99   90.29
   4   7   1  148.90   24.37
  -4   7  -1  187.30   21.45
  -4  -7  -1  164.44   16.25
   4  -7   1  169.55   27.24
   4   7   2 3517.12  109.61
  -4   7  -2 3407.85  108.93
  -4  -7  -2 3705.40  117.49
   4  -7   2 3722.71  114.77
   4   7   3 2549.85   91.84
  -4   7  -3 2484.78   93.88
  -4  -7  -3 2663.09   99.12
   4  -7   3 2720.97  141.72
  -4   7  -4 1237.50   51.89
   4   7   4 1254.45   53.49
   4  -7   4 1079.86   57.19
  -4  -7  -4 1254.46  139.76
   4  -7   4 1252.80   53.85
  -4   7  -5  819.94   98.48
   4   7   5  760.03   50.13
   4  -7   5  554.08   89.19
  -4  -7  -5  744.06   65.02
   4  -7   5  708.26   91.72
  -4   7  -6  237.48   39.51
   4   7   6  195.87   36.61
   4  -7   6  164.37   40.06
  -4  -7  -6  250.99   31.11
   4  -7   6  175.69   37.88
   4   7   7  629.54   67.10
  -4   7  -7  721.40   38.09
  -4   7  -7  620.33   74.31
  -4  -7  -7  752.83  112.35
   4   7   8   75.71   35.83
  -4   7  -8  107.54   23.53
  -4  -7  -8   72.24   26.29
  -4   8  11   97.33   28.49
   4   8 -11  134.29   32.20
  -4  -8  11  197.11   25.25
   4  -8 -11  182.64   46.73
  -4   8  10  132.77   28.62
   4   8 -10  136.11   32.97
  -4  -8  10  115.14   30.14
   4  -8 -10   77.30   21.15
  -4   8   9  130.03   26.07
  -4   8   9  140.32   24.49
   4   8  -9  142.75   30.40
  -4  -8   9  188.32   40.63
   4  -8  -9  160.00   27.15
  -4   8   8   98.41   17.07
  -4   8   8   91.31   14.96
   4   8  -8   90.34   18.96
  -4  -8   8   99.02   18.72
   4  -8  -8  104.82   18.35
  -4   8   7 2345.67  138.67
  -4   8   7 2417.92  106.28
   4   8  -7 2483.99  116.84
  -4  -8   7 2586.73  118.83
   4  -8  -7 2368.37  110.33
  -4   8   6  866.24   77.23
  -4   8   6  774.64   80.21
   4   8  -6  754.79   82.48
   4  -8  -6  810.82   42.89
  -4  -8   6  809.82   38.94
  -4  -8   6  814.91   84.93
   4   8  -5  195.62   25.74
   4   8  -5  197.68   22.98
  -4   8   5  169.41   18.90
   4  -8  -5  184.82   31.10
  -4  -8   5  172.76   29.15
   4   8  -4  930.67   32.32
   4   8  -4  978.60   51.30
  -4   8   4  967.06   37.91
   4  -8  -4  978.47  123.94
  -4  -8   4  936.46  112.35
   4   8  -3 1637.58   82.15
   4   8  -3 1568.27  112.00
  -4   8   3 1741.84  131.37
   4  -8  -3 1677.98  136.84
  -4  -8   3 1589.96   55.31
   4   8  -2  991.60   41.01
   4   8  -2 1096.52   59.54
  -4   8   2 1089.24   98.00
   4  -8  -2 1071.21   77.20
  -4  -8   2 1051.09   44.49
   4   8  -1 1895.48   75.09
  -4   8   1 1949.96   80.69
  -4  -8   1 1902.04   74.82
  -4  -8   1 2061.95   81.53
   4  -8  -1 1922.18   76.35
   4   8   0 1234.82   73.26
  -4   8   0 1136.82   50.53
  -4  -8   0 1180.74   38.27
  -4  -8   0 1207.32  148.66
   4  -8   0 1277.59  136.75
   4   8   1 2315.31   76.46
  -4   8  -1 2236.94   78.12
  -4  -8  -1 2184.10   80.48
   4  -8   1 2220.57   77.05
   4   8   2  486.03   78.78
  -4   8  -2  374.53   24.59
  -4  -8  -2  408.91   71.17
   4  -8   2  385.07   61.43
   4   8   3  328.21   56.09
  -4   8  -3  314.75   23.94
  -4  -8  -3  309.29   44.57
   4  -8   3  307.93   43.34
   4   8   4  320.33   27.99
  -4   8  -4  297.12   47.25
  -4  -8  -4  306.51   31.78
   4  -8   4  389.54   41.68
   4   8   5  387.09   53.28
  -4   8  -5  376.86   30.79
  -4  -8  -5  368.83   45.32
   4  -8   5  271.91   50.98
   4   8   6  861.80   90.79
  -4   8  -6  868.19  100.95
  -4  -8  -6  823.39  105.41
   4  -8   6  768.18  118.94
   4   8   7  110.30   38.58
  -4   8  -7  107.18   29.06
  -4  -8  -7   94.59   27.25
   4  -8   7  110.96   32.12
   4   9 -10   16.72   16.97
   4  -9 -10   18.29   13.89
  -4  -9  10   19.43   13.62
  -4   9   9   92.90   23.78
   4   9  -9   92.23   22.32
  -4  -9   9  161.25   34.59
   4   9  -8  969.73   92.92
  -4   9   8  867.44   48.20
  -4  -9   8  901.91  112.15
   4  -9  -8  859.14  128.59
   4   9  -7   59.83   21.71
  -4   9   7   41.65   17.92
  -4  -9   7   23.58    9.96
   4  -9  -7   45.18   13.67
   4   9  -6  401.57   35.55
  -4   9   6  407.35   58.39
   4  -9  -6  441.04   73.22
  -4  -9   6  394.26   52.29
  -4  -9   6  462.26   79.83
  -4   9   5  228.18   32.80
   4   9  -5  193.59   20.03
   4  -9  -5  195.47   24.33
   4   9  -4 4042.48  121.31
  -4   9   4 4014.38  125.53
   4   9  -4 4116.82  209.18
   4  -9  -4 4032.14  124.32
   4   9  -3  652.26   56.34
   4   9  -3  597.70   32.65
  -4   9   3  634.89   62.84
   4  -9  -3  557.52   84.74
  -4  -9   3  547.30   76.50
   4   9  -2 2848.94   96.88
  -4   9   2 3082.17  171.41
  -4  -9   2 2968.85  100.95
  -4  -9   2 2791.52  134.95
   4  -9  -2 2873.23  101.03
  -4   9   1  107.84   13.47
  -4  -9   1   92.04   13.12
  -4  -9   1  140.91   23.38
   4  -9  -1   91.85   19.62
   4   9   0  287.63   43.96
  -4   9   0  383.37   42.59
   4  -9   0  334.10   53.87
  -4  -9   0  327.30   39.92
  -4  -9   0  218.37   36.94
   4   9   1  611.08   65.26
  -4   9  -1  548.74   29.44
  -4  -9  -1  587.38   55.53
   4  -9   1  597.75   72.12
   4   9   2  133.29   18.32
  -4   9  -2   94.63   21.99
  -4  -9  -2  148.79   16.93
   4  -9   2  148.59   25.85
   4   9   3   30.22   10.36
  -4   9  -3   29.88   17.12
  -4  -9  -3   56.18   12.96
   4  -9   3   45.42   13.59
   4   9   4  100.51   17.03
  -4   9  -4   58.41   16.57
  -4  -9  -4   65.97   14.15
   4  -9   4   76.48   20.38
   4   9   5   16.94   10.52
  -4   9  -5   20.75    9.45
  -4  -9  -5   12.37   10.47
   4  -9   5   -2.77   18.01
   4   9   6  364.59   42.88
  -4   9  -6  314.32   46.20
  -4  -9  -6  374.16   54.51
   4  -9   6  330.50   69.79
   4   9   7  191.89   50.81
   4  -9   7  266.73   56.60
  -4  -9  -7  290.45   39.58
   4  10  -9  324.15   40.20
  -4  10   9  219.80   41.90
  -4 -10   9  352.95   63.30
   4 -10  -9  320.88   48.01
   4  10  -8   53.76   29.99
  -4  10   8   39.64   19.89
  -4 -10   8   18.73   13.15
   4 -10  -8   41.95   18.01
   4  10  -7 1062.73  130.88
  -4  10   7  964.06   84.03
  -4 -10   7  934.49  116.18
   4 -10  -7  824.03  133.61
   4  10  -6  578.75   47.63
  -4  10   6  536.83   62.25
   4 -10  -6  588.28   89.59
  -4 -10   6  449.07   75.09
  -4 -10   6  496.72   65.54
   4  10  -5  792.71   98.03
  -4  10   5  774.45   77.57
  -4 -10   5  842.95  106.53
   4 -10  -5  812.64  127.51
   4  10  -4  380.61   36.50
  -4  10   4  343.37   32.16
   4  10  -4  349.53   29.02
   4 -10  -4  358.90   51.39
   4  10  -3  542.10   34.51
  -4  10   3  539.65   43.71
   4 -10  -3  506.04   73.97
  -4 -10   3  482.79   76.54
   4  10  -2   18.23    6.44
  -4  10   2   33.92   16.36
  -4 -10   2   -5.11   12.22
  -4 -10   2  -29.45   16.65
   4 -10  -2    9.60   15.12
   4  10  -1  876.21   48.57
  -4  10   1  998.92  117.73
  -4 -10   1  912.18   92.44
  -4 -10   1  871.86  123.47
   4 -10  -1  991.77   70.00
   4  10   0  105.80   24.47
  -4  10   0  114.89   24.26
  -4 -10   0  104.24   17.02
   4 -10   0   95.23   13.85
   4  10   1  339.68   23.21
  -4  10  -1  348.53   56.16
  -4 -10  -1  325.07   45.22
   4 -10   1  352.27   53.42
   4  10   2   77.81   14.21
  -4  10  -2   74.01   13.88
  -4 -10  -2   92.70   21.18
   4 -10   2   80.68   19.01
   4  10   3  484.60   69.66
  -4  10  -3  435.17   37.33
  -4 -10  -3  486.85   57.40
   4 -10   3  516.17   60.30
   4  10   4  327.93   42.28
  -4  10  -4  281.18   28.46
  -4 -10  -4  321.15   45.34
   4 -10   4  358.73   53.31
   4  10   5   35.99   13.06
   4 -10   5   20.93   14.95
  -4 -10  -5   36.41   17.82
   4  10   6 1536.06  110.87
  -4  10  -6 1275.73  151.31
  -4 -10  -6 1335.50  173.25
   4 -10   6 1536.66  101.67
   4  11  -8  482.92   51.65
  -4  11   8  333.13   47.98
  -4 -11   8  399.84   68.71
   4 -11  -8  349.93   30.76
   4  11  -7  136.97   27.58
  -4  11   7  124.42   29.28
  -4 -11   7  155.84   32.65
   4 -11  -7  100.47   26.97
   4  11  -6  523.12   41.28
  -4  11   6  493.59   52.45
  -4 -11   6  476.05   66.05
   4 -11  -6  516.40   35.96
   4  11  -5  115.21   21.39
  -4  11   5  107.21   26.92
  -4 -11   5  111.18   28.92
   4 -11  -5  166.52   32.48
   4  11  -4   46.65   10.57
   4  11  -4   70.70   11.70
  -4  11   4   44.74   21.73
   4 -11  -4   44.26   13.11
   4  11  -3    4.74    9.13
  -4  11   3   15.97   22.33
   4 -11  -3   35.27   16.98
  -4 -11   3   17.85    8.05
   4  11  -2  955.99   71.53
  -4  11   2 1030.82   83.20
  -4 -11   2  962.69   89.33
  -4 -11   2  958.18  148.23
   4 -11  -2  913.36  150.37
   4  11  -1  346.24   58.78
  -4  11   1  359.30   33.60
  -4 -11   1  298.21   50.83
  -4 -11   1  315.23   56.58
   4 -11  -1  373.55   60.78
   4  11   0  511.79   67.89
  -4  11   0  478.45   67.68
  -4 -11   0  553.10   79.50
   4 -11   0  613.30   84.16
   4  11   1  355.43   69.49
  -4  11  -1  374.13   33.47
  -4 -11  -1  227.71   35.29
   4 -11   1  297.04   46.61
   4  11   2  733.55   68.40
  -4  11  -2  680.94   37.05
  -4 -11  -2  705.70  110.78
   4 -11   2  719.89   85.70
   4  11   3    9.43   17.57
  -4  11  -3   27.91   15.06
  -4 -11  -3   30.82   10.25
   4 -11   3   31.32   14.10
   4  11   4  130.52   30.00
  -4  11  -4  159.98   32.91
  -4 -11  -4  161.20   36.50
   4 -11   4  160.29   32.77
   4  11   5  148.64   22.78
  -4  11  -5  198.22   30.38
  -4 -11  -5  206.65   36.49
   4 -11   5  168.06   32.23
   4  12  -7  194.30   33.45
  -4  12   7  251.65   38.73
  -4 -12   7  208.20   40.78
   4 -12  -7  245.91   37.24
   4  12  -6    6.10   16.81
  -4  12   6   51.65   17.84
  -4 -12   6   26.71   14.72
   4 -12  -6    7.62   20.48
  -4  12   5   72.47   24.21
   4 -12  -5   88.16   24.84
  -4 -12   5   76.77   20.97
   4  12  -4  161.85   38.46
  -4  12   4  164.22   33.76
   4 -12  -4  158.88   33.07
  -4 -12   4  126.46   31.32
   4  12  -3   18.12    7.48
  -4  12   3   43.78   22.09
   4 -12  -3   26.84   14.22
  -4 -12   3   20.08   10.64
   4  12  -2   -1.54   14.39
  -4  12   2   -9.78   20.78
  -4 -12   2    2.69    9.35
  -4 -12   2   22.40    7.42
   4 -12  -2   -2.22   11.50
   4  12  -1  229.08   47.25
  -4  12   1  281.20   28.84
  -4 -12   1  199.63   38.86
   4 -12  -1  284.07   50.24
   4  12   0  184.35   33.49
  -4  12   0  176.60   34.04
  -4 -12   0  224.55   46.88
   4 -12   0  236.70   43.63
   4  12   1   22.81   15.54
  -4  12  -1   43.62   12.76
  -4 -12  -1   -3.24   19.65
   4 -12   1   24.09   10.55
   4  12   2  159.14   36.36
  -4  12  -2  175.17   38.71
  -4 -12  -2  143.37   33.51
   4 -12   2  172.60   41.37
  -4  12  -3  109.49   31.64
  -4 -12  -3  133.75   31.11
   4 -12   3  141.67   31.90
   4  12   4   69.66   19.33
  -4  12  -4    1.70   18.80
  -4 -12  -4   14.31   13.08
   4 -12   4   37.77   12.46
  -4  13   6  495.00   46.79
  -4 -13   6  270.66   67.43
  -4  13   5   35.48   24.58
   4 -13  -5   23.15   12.13
  -4 -13   5   18.40   12.70
   4  13  -4    8.95    8.78
  -4  13   4    7.69   20.98
   4 -13  -4   42.47   14.98
  -4 -13   4    9.25    8.64
   4  13  -3   53.18   17.35
  -4  13   3    2.90   19.35
   4 -13  -3   72.80   21.04
   4  13  -2   88.09   25.00
  -4  13   2  163.44   37.39
  -4 -13   2  126.37   31.24
   4 -13  -2  121.89   40.57
   4  13  -1  445.31   52.71
  -4  13   1  601.50   41.39
  -4 -13   1  470.96   70.62
   4 -13  -1  523.87   61.95
   4  13   0  312.61   67.42
  -4  13   0  344.73   45.12
  -4 -13   0  263.22   77.49
   4 -13   0  315.33   71.63
   4  13   1  112.79   27.50
  -4  13  -1  193.59   33.00
  -4 -13  -1  240.38   39.69
   4 -13   1  192.46   42.98
   4  13   2  633.38   45.47
  -4  13  -2  505.84   56.77
  -4 -13  -2  541.11   65.24
   4 -13   2  586.87   87.35
  -4  14   2   36.17   24.49
  -4 -14   2   41.63   12.92
   4 -14  -2   39.89   14.05
  -4  14   1  128.33   38.47
  -4 -14   1   69.51   21.92
   4 -14  -1  142.87   38.19
  -5   0  13  -13.11   21.46
   5   0 -13   45.39   17.32
  -5   0  12 1108.51  109.56
   5   0 -12 1030.33  136.35
  -5   0  11  209.53   32.67
   5   0 -11  152.78   25.01
  -5   0  10  192.68   27.16
   5   0 -10  230.58   32.73
  -5   0   9  987.31   94.24
   5   0  -9 1087.80  111.68
  -5   0   8 5966.14  207.66
   5   0  -8 5746.36  203.02
  -5   0   7 4654.99  150.66
   5   0  -7 4791.16  154.24
  -5   0   6 4629.08  188.77
   5   0  -6 4520.46  118.76
  -5   0   6 4614.59  112.09
  -5   0   5  200.08   25.38
   5   0  -5  218.35   27.90
  -5   0   5  180.55   25.13
   5   0  -4 1215.79   48.57
   5   0  -4 1164.48   57.57
  -5   0   4 1256.26   48.97
   5   0  -3 3841.46   74.46
   5   0  -3 3787.19   58.93
  -5   0   3 3856.08   60.85
   5   0  -216259.04  204.83
   5   0  -215781.02  197.18
  -5   0   216106.82  204.34
   5   0  -1 6687.53   94.64
   5   0  -1 6784.78   91.32
  -5   0   1 6771.51   98.41
   5   0   0 1833.40   69.35
   5   0   0 1903.49   72.37
  -5   0   0 1767.60   68.96
   5   0   1  787.50   38.29
   5   0   1  791.00   60.21
  -5   0  -1  793.98   94.46
   5   0   2  383.45   50.82
   5   0   2  348.05   34.68
  -5   0  -2  371.91   52.66
   5   0   3   69.57    7.56
   5   0   3   60.08   10.76
  -5   0  -3   42.00    7.45
   5   0   4   25.46    8.90
  -5   0  -4    5.48    8.50
   5   0   5 1487.00   63.83
  -5   0  -5 1435.26   53.01
  -5   0  -5 1422.21   59.12
   5   0   6 2274.78  107.19
  -5   0  -6 2275.90  100.22
  -5   0  -6 2362.15  110.62
   5   0   7  674.04   62.50
  -5   0  -7  711.23   86.17
   5   0   8  180.27   46.09
  -5   0  -8  186.87   40.96
   5   0   9  149.06   37.70
   5   1 -13   22.70   11.94
  -5   1  13   11.03   19.97
  -5  -1  13   28.09   11.07
   5  -1 -13   21.51   23.52
  -5   1  12  515.35   43.85
   5   1 -12  428.03   50.45
  -5  -1  12  471.75   61.36
   5  -1 -12  478.09   33.21
  -5   1  11  649.08   80.65
   5   1 -11  566.50   34.36
   5  -1 -11  526.91   49.62
  -5  -1  11  657.68   74.71
  -5   1  10  350.89   29.62
   5   1 -10  304.05   26.00
  -5  -1  10  337.18   32.06
   5  -1 -10  418.23   45.54
  -5   1   9  492.13   66.44
   5   1  -9  525.89   53.88
   5  -1  -9  457.97   53.52
  -5  -1   9  451.54   59.99
  -5   1   8  908.99  105.28
   5   1  -8  993.03   69.86
  -5  -1   8 1077.13  130.55
   5  -1  -8  987.34   84.62
  -5   1   7 2821.92   87.87
  -5   1   7 2804.51   94.94
   5   1  -7 2666.72   92.22
  -5  -1   7 2910.66  121.01
   5  -1  -7 2740.20   96.52
  -5   1   6 1386.68   46.09
   5   1  -6 1325.91   48.09
  -5   1   6 1409.59   53.86
   5  -1  -6 1616.29   94.78
  -5  -1   6 1406.54   37.90
  -5  -1   6 1361.13   46.16
  -5   1   5  510.68   58.06
  -5   1   5  551.03   29.55
   5   1  -5  531.64   58.65
   5  -1  -5  449.42   26.12
  -5  -1   5  474.02   49.34
  -5  -1   5  489.88   71.38
  -5   1   4 4746.23   76.56
   5   1  -4 4868.59   77.43
   5   1  -4 4710.17   72.76
   5  -1  -4 4787.69   74.89
  -5  -1   4 4799.65   70.18
   5  -1  -4 4743.71   72.33
   5   1  -3  499.84   25.43
   5   1  -3  510.94   56.05
  -5   1   3  559.42   52.97
   5  -1  -3  485.92   23.66
  -5  -1   3  500.87   24.10
   5  -1  -3  524.00   44.22
   5   1  -2   15.82   13.08
   5   1  -2   -0.11    6.93
  -5   1   2   16.56   10.04
   5  -1  -2   -1.90   16.01
  -5  -1   2   17.62   10.37
   5  -1  -2   26.97   12.19
  -5   1   1 5950.81   92.12
   5   1  -1 6016.66   88.40
   5   1  -1 5987.59   78.86
   5  -1  -1 5929.21   90.67
  -5  -1   1 5909.85   92.69
   5  -1  -1 6037.32   85.02
   5   1   0  398.92   39.65
   5   1   0  409.74   31.73
  -5   1   0  360.61   22.91
   5  -1   0  400.98   18.84
  -5  -1   0  410.74   55.35
   5  -1   0  444.06   57.46
   5   1   1 1014.13  102.22
   5   1   1  855.07   32.10
  -5   1  -1  846.15   38.89
   5  -1   1  986.63   52.79
  -5  -1  -1  873.60   44.44
   5  -1   1  907.41   87.58
   5   1   2  628.46   89.09
   5   1   2  658.24   38.04
  -5   1  -2  722.37   85.38
   5  -1   2  620.87   32.06
  -5  -1  -2  571.19   91.74
   5  -1   2  623.61   28.36
   5   1   3  688.51   76.61
  -5   1  -3  692.47   36.01
   5   1   3  630.70   33.20
   5  -1   3  689.88   87.88
  -5  -1  -3  710.47  100.56
   5  -1   3  656.27   26.07
  -5   1  -4 1503.64   64.66
   5   1   4 1568.22  156.64
   5  -1   4 1617.29   66.60
  -5  -1  -4 1472.51   62.16
   5  -1   4 1602.34   61.03
   5   1   5   65.76   15.64
  -5   1  -5   72.63   14.94
  -5   1  -5   60.43   16.89
   5  -1   5   40.25   12.98
  -5  -1  -5   72.52   14.46
   5   1   6 1824.76   91.25
  -5   1  -6 1777.35   84.06
  -5   1  -6 1913.99   91.40
   5  -1   6 1948.36   95.15
  -5  -1  -6 1808.43   87.55
   5   1   7   65.24   20.25
  -5   1  -7   31.39   11.62
  -5   1  -7   37.97   14.26
   5  -1   7   40.47   10.18
  -5  -1  -7   18.84   12.22
   5   1   8  462.97   57.91
  -5   1  -8  507.40   57.33
  -5  -1  -8  483.91   71.98
   5  -1   8  478.21   88.14
   5   1   9  296.40   57.24
   5  -1   9  326.21   60.77
  -5   2  13  193.09   41.55
   5   2 -13  178.79   39.47
  -5  -2  13  174.55   49.16
   5  -2 -13   76.02   11.94
  -5   2  12 1136.52  117.82
   5   2 -12 1082.10   87.76
  -5  -2  12 1176.20  137.25
   5  -2 -12 1163.35  132.60
  -5   2  11   49.35   12.24
   5   2 -11    4.68    9.61
  -5  -2  11   54.44   21.47
   5  -2 -11   30.22   12.90
  -5   2  10  554.36   72.87
   5   2 -10  573.45   85.06
  -5  -2  10  552.07   77.02
   5  -2 -10  491.92   79.26
  -5   2   9 1168.30  127.36
   5   2  -9 1199.85   52.27
  -5  -2   9 1213.10  135.04
   5  -2  -9 1177.23  110.68
  -5   2   8 2188.89   73.80
   5   2  -8 2112.62   75.18
  -5  -2   8 2216.95   78.04
   5  -2  -8 2157.59   76.03
  -5   2   7   65.35    8.67
  -5   2   7   78.14   10.65
   5   2  -7   72.83   13.19
  -5  -2   7   78.47   11.95
   5  -2  -7   58.82   13.13
  -5   2   6 3100.76   80.31
  -5   2   6 2955.90   83.52
   5   2  -6 2982.74   83.77
   5  -2  -6 2994.05   85.23
  -5  -2   6 2879.08   71.16
  -5  -2   6 2789.65   81.00
  -5   2   5 1156.63   48.43
   5   2  -5 1143.71   96.63
   5   2  -5 1147.63   37.94
  -5   2   5 1120.48   45.25
   5  -2  -5 1122.83   49.20
  -5  -2   5 1114.02   44.65
  -5   2   4 3436.41   69.13
   5   2  -4 3301.00   69.65
   5   2  -4 3230.28   65.18
  -5   2   4 3313.79   67.01
   5  -2  -4 3387.80   70.71
  -5  -2   4 3496.99   67.31
   5   2  -3 4570.95   73.35
   5   2  -3 4556.30   71.47
  -5   2   3 4472.48   70.68
   5  -2  -3 4529.79   80.56
  -5  -2   3 4441.60   71.96
   5  -2  -3 4531.60   67.16
   5   2  -2 3328.33   57.90
   5   2  -2 3376.12   49.78
  -5   2   2 3430.13   60.07
   5  -2  -2 3423.37   62.31
  -5  -2   2 3342.33   57.92
   5  -2  -2 3489.37   53.47
   5   2  -1 1151.68   47.61
   5   2  -1 1258.36   45.38
  -5   2   1 1180.62   50.13
   5  -2  -1 1239.71   48.85
  -5  -2   1 1311.59   53.32
   5  -2  -1 1216.51   46.37
  -5   2   0 3870.62   81.46
   5   2   0 3894.73   81.66
   5   2   0 3904.13   66.77
   5  -2   0 4067.90   77.81
  -5  -2   0 4078.26   83.99
   5  -2   0 4014.26   75.12
   5   2   1 1523.01   41.96
  -5   2  -1 1518.82   44.08
   5  -2   1 1453.53   53.13
  -5  -2  -1 1425.62   49.02
   5  -2   1 1457.13   36.87
  -5   2  -2  709.98   76.34
   5   2   2  640.65   71.63
   5  -2   2  596.32   66.89
  -5  -2  -2  585.61   92.32
   5  -2   2  548.99   28.07
  -5   2  -3 3076.74  106.37
   5   2   3 3119.84  106.52
   5  -2   3 3115.12  102.32
  -5  -2  -3 2844.22   98.84
   5  -2   3 2963.05   96.73
  -5   2  -4  352.16   33.01
   5   2   4  322.77   42.37
   5  -2   4  324.52   52.71
  -5  -2  -4  275.39   29.04
   5  -2   4  272.30   32.77
  -5   2  -5  118.17   11.49
   5   2   5  126.46   17.24
  -5   2  -5  163.15   21.85
  -5  -2  -5  132.26   20.20
   5  -2   5   94.79   14.56
   5   2   6 1840.24   89.01
  -5   2  -6 1594.00  175.83
  -5   2  -6 2007.84  140.17
   5  -2   6 1911.65  101.29
  -5  -2  -6 1780.04  181.80
   5   2   7  369.53   30.30
  -5   2  -7  361.99   49.78
  -5  -2  -7  347.89   44.19
   5  -2   7  362.79   41.33
   5   2   8  113.82   34.63
  -5   2  -8   62.70   16.20
  -5  -2  -8  119.12   25.37
   5  -2   8  119.53   33.70
   5   2   9  123.05   38.78
   5  -2   9  115.77   36.11
  -5  -2  -9  137.43   38.62
  -5   3  12    3.36   16.61
   5   3 -12   41.47   21.87
  -5  -3  12   87.66   25.36
   5  -3 -12   45.22   17.27
  -5   3  11  839.58  106.26
   5   3 -11  835.33  125.83
  -5  -3  11  809.20  103.64
   5  -3 -11  754.56   95.98
  -5   3  10  276.60   42.42
   5   3 -10  238.77   33.02
  -5  -3  10  238.14   36.17
   5  -3 -10  274.51   40.94
  -5   3   9  742.19   72.21
   5   3  -9  658.89   58.42
  -5  -3   9  662.18   73.23
   5  -3  -9  720.31   80.03
  -5   3   8  326.83   44.25
  -5   3   8  484.75   48.98
   5   3  -8  419.90   47.45
  -5  -3   8  473.55   56.13
   5  -3  -8  480.72   63.06
  -5   3   7 1928.24   70.72
  -5   3   7 1980.32   75.46
   5   3  -7 1882.27   75.24
  -5  -3   7 1864.18   92.03
   5  -3  -7 1817.61   73.97
  -5   3   6  758.73   28.49
  -5   3   6  784.09   32.16
   5   3  -6  770.27   32.72
   5  -3  -6  778.22   46.38
  -5  -3   6  751.94   23.85
  -5  -3   6  772.77  105.80
  -5   3   5 1569.46   64.21
   5   3  -5 1577.97  121.04
   5   3  -5 1443.72   46.54
  -5   3   5 1517.46   48.34
   5  -3  -5 1531.62   50.53
  -5  -3   5 1532.76   42.85
  -5   3   4 9821.87  170.05
   5   3  -4 9674.93  183.74
   5   3  -4 9753.49  173.95
  -5   3   410042.76  177.21
   5  -3  -4 9782.73  180.73
  -5  -3   4 9683.45  174.92
  -5   3   3 2892.07   61.78
   5   3  -3 3000.53   64.69
   5   3  -3 2997.39   59.45
  -5   3   3 2964.51   65.92
   5  -3  -3 2940.75   65.21
  -5  -3   3 3106.57   62.99
   5   3  -2  609.75   76.46
   5   3  -2  517.42   22.03
  -5   3   2  531.52   54.44
   5  -3  -2  561.57   27.63
  -5  -3   2  572.65   72.88
   5  -3  -2  564.25   55.38
   5   3  -1 3731.71   76.65
   5   3  -1 3814.65   65.95
  -5   3   1 3776.32   86.64
   5  -3  -1 3872.83   77.88
  -5  -3   1 3946.00   79.76
   5  -3  -1 3923.94   72.59
  -5   3   0  405.89   51.84
   5   3   0  416.31   41.11
   5  -3   0  334.02   39.05
  -5  -3   0  374.80   50.12
   5  -3   0  409.48   45.23
   5   3   1  392.54   40.41
  -5   3  -1  347.52   43.11
   5  -3   1  369.35   39.39
  -5  -3  -1  363.06   60.19
   5  -3   1  408.06   46.40
  -5   3  -2 5135.66  134.70
   5   3   2 4834.18  128.88
   5  -3   2 5052.19  128.71
  -5  -3  -2 4953.97  134.98
   5  -3   2 5046.69  132.19
  -5   3  -3 8928.33  306.02
   5   3   3 8684.03  293.84
   5  -3   3 9088.55  303.22
  -5  -3  -3 9110.64  312.51
   5  -3   3 9139.38  305.93
  -5   3  -4 2533.03   83.26
   5   3   4 2538.79   84.90
   5  -3   4 2702.90   84.51
  -5  -3  -4 2682.91  107.60
   5  -3   4 2659.19   83.42
   5   3   5  372.84   43.31
  -5   3  -5  450.53   41.05
   5  -3   5  409.06   55.04
  -5  -3  -5  472.60   51.29
  -5   3  -6 1344.92  111.45
   5   3   6 1348.82  151.43
  -5   3  -6 1371.61  132.26
  -5  -3  -6 1342.14  145.39
   5  -3   6 1418.35   51.01
  -5   3  -7  173.86   31.29
   5   3   7  194.38   38.42
  -5   3  -7  194.63   36.35
  -5  -3  -7  212.05   36.59
   5  -3   7  218.86   45.85
  -5   3  -8  149.93   41.61
   5   3   8  171.28   42.84
  -5   3  -8  183.86   36.79
  -5  -3  -8  198.84   52.45
   5  -3   8  182.90   43.22
  -5   4  12 1429.98  428.71
   5   4 -12 1391.61  405.45
  -5  -4  12 1404.46  439.78
   5  -4 -12 1170.94  167.50
  -5   4  11  709.75   85.98
   5   4 -11  580.56   61.72
  -5  -4  11  675.64  101.24
   5  -4 -11  703.46   91.41
  -5   4  10  254.55   42.97
   5   4 -10  207.26   33.63
  -5  -4  10  268.84   45.82
   5  -4 -10  194.46   31.95
  -5   4   9  475.99   58.68
   5   4  -9  482.40   49.22
  -5  -4   9  477.34   75.00
   5  -4  -9  445.31   73.15
  -5   4   8 1462.19   53.33
  -5   4   8 1527.12   74.57
   5   4  -8 1623.95  159.98
  -5  -4   8 1422.97   81.87
   5  -4  -8 1538.79  124.08
  -5   4   7  501.53   41.31
  -5   4   7  537.28   65.86
   5   4  -7  582.69   51.54
  -5  -4   7  539.39   59.07
   5  -4  -7  469.97   49.46
  -5   4   6  305.90   37.33
  -5   4   6  289.41   32.56
   5   4  -6  295.94   19.65
   5  -4  -6  294.49   21.13
  -5  -4   6  294.51   28.15
  -5  -4   6  318.96   35.11
  -5   4   5 1042.04   33.35
   5   4  -5 1202.49  117.23
   5   4  -5 1157.62   41.28
  -5   4   5 1152.54  118.25
   5  -4  -5 1133.97   40.31
  -5  -4   5 1140.56   34.16
  -5   4   4  660.44   35.94
   5   4  -4  641.62   28.86
   5   4  -4  852.18   59.07
  -5   4   4  708.08   29.68
   5  -4  -4  682.97   32.10
  -5  -4   4  729.88   26.23
  -5   4   3  465.35   26.93
   5   4  -3  499.33   61.57
   5   4  -3  502.69   36.07
  -5   4   3  476.05   42.40
   5  -4  -3  522.60   76.79
  -5  -4   3  549.27   73.85
   5   4  -2 1015.16   86.83
   5   4  -2  916.25   35.88
  -5   4   2 1036.98  106.33
   5  -4  -2  998.49   46.12
  -5  -4   2 1019.99   44.87
   5  -4  -2  996.89   37.56
   5   4  -1 1392.94   42.46
   5   4  -1 1379.80   27.67
  -5   4   1 1418.28   61.10
   5  -4  -1 1316.71   43.45
  -5  -4   1 1351.26   45.10
   5  -4  -1 1357.96   33.80
   5   4   0  885.66   67.29
  -5   4   0  930.16  104.16
   5  -4   0  801.44   53.35
  -5  -4   0  790.01   31.18
   5  -4   0  809.08   30.98
  -5   4  -1 1789.23  115.31
   5   4   1 1647.63   71.15
   5  -4   1 1473.34   53.54
  -5  -4  -1 1643.88   55.41
   5  -4   1 1503.32   48.33
  -5   4  -2  539.60   27.37
   5   4   2  569.98   29.88
   5  -4   2  561.17   55.81
  -5  -4  -2  607.71   69.44
   5  -4   2  604.58   67.35
  -5   4  -3   95.54   11.95
   5   4   3   49.90    9.29
   5  -4   3   60.60    9.06
  -5  -4  -3   58.42    8.46
   5  -4   3   76.78   11.91
  -5   4  -4  964.65   87.13
   5   4   4  758.72   88.11
   5  -4   4  848.55   29.73
  -5  -4  -4  868.23   84.15
   5  -4   4  834.99   41.74
  -5   4  -5  174.70   27.20
   5   4   5  149.77   26.44
   5  -4   5  136.92   17.43
  -5  -4  -5  175.50   22.23
   5  -4   5  146.42   20.17
   5   4   6   79.04   23.96
  -5   4  -6   81.55   18.03
   5  -4   6  117.34   23.84
  -5  -4  -6   54.90   21.27
  -5   4  -7  891.85   52.13
   5   4   7  892.03  110.89
  -5   4  -7  758.70   83.13
  -5  -4  -7  874.91  111.86
   5  -4   7  794.10  117.08
  -5   4  -8  241.65   52.30
   5   4   8  256.33   59.15
  -5   4  -8  217.88   48.40
  -5  -4  -8  229.38   47.28
   5  -4   8  262.14   62.37
  -5   5  12  341.76   41.55
   5   5 -12  248.30   40.43
  -5  -5  12  319.06   47.38
   5  -5 -12  259.30   48.84
  -5   5  11  622.85   88.86
   5   5 -11  652.52   40.13
  -5  -5  11  656.73   81.35
   5  -5 -11  611.37  106.25
  -5   5  10  913.30   95.75
   5   5 -10  862.37   75.50
  -5  -5  10 1017.14  125.51
   5  -5 -10  835.90  131.72
  -5   5   9 1327.89  120.89
  -5   5   9 1647.23   78.82
   5   5  -9 1626.36  146.39
  -5  -5   9 1619.35   84.71
   5  -5  -9 1554.46   79.01
  -5   5   8  585.62   74.97
  -5   5   8  852.91  103.95
   5   5  -8  621.49   55.62
  -5  -5   8  682.41   82.10
   5  -5  -8  700.10   35.34
  -5   5   7 1723.03  157.38
  -5   5   7 1814.09   77.76
   5   5  -7 1789.60   64.72
  -5  -5   7 1778.92  108.15
   5  -5  -7 1835.12   64.70
   5   5  -6  492.21   66.06
  -5   5   6  482.65   47.14
  -5   5   6  450.98   41.97
  -5  -5   6  353.12   43.89
  -5  -5   6  415.44   49.68
  -5   5   5 1277.42   60.77
   5   5  -5 1353.68   54.92
   5   5  -5 1325.15   94.05
  -5   5   5 1322.20   51.72
   5  -5  -5 1308.56   85.32
  -5  -5   5 1357.05   48.42
  -5   5   4 6369.21  154.43
   5   5  -4 6112.65  172.27
   5   5  -4 6152.78  153.15
  -5   5   4 6468.85  164.72
   5  -5  -4 6282.46  161.62
  -5  -5   4 6354.42  169.73
  -5   5   3 1089.68   29.56
   5   5  -3 1115.01   39.36
   5   5  -3 1133.08   34.33
   5  -5  -3 1057.11   37.00
  -5  -5   3 1125.28   37.35
  -5   5   2  323.59   32.03
   5   5  -2  395.15   70.22
   5   5  -2  378.55   21.83
  -5   5   2  441.50   52.21
   5  -5  -2  438.55   61.68
  -5  -5   2  391.56   57.69
   5   5  -1  774.31   60.37
   5   5  -1  741.86   21.13
  -5   5   1  816.55   83.59
   5  -5  -1  803.05   81.87
  -5  -5   1  757.32   31.66
   5   5   0  698.03   32.69
  -5   5   0  791.68   70.75
   5  -5   0  661.62   20.25
  -5  -5   0  750.71   83.40
   5  -5   0  679.24   35.08
  -5   5  -1 1031.39   41.77
   5   5   1 1055.62   40.73
   5  -5   1 1022.29   28.53
  -5  -5  -1 1048.12  106.44
   5  -5   1 1111.88   38.95
  -5   5  -2 4706.99  166.34
   5   5   2 4638.74  164.52
   5  -5   2 4582.35  155.27
  -5  -5  -2 4785.70  170.04
   5  -5   2 4723.50  190.15
  -5   5  -3 2015.98   76.77
   5   5   3 1935.59   68.53
   5  -5   3 1969.52   74.34
  -5  -5  -3 2008.87   71.70
   5  -5   3 1944.13   99.93
  -5   5  -4 1819.90   67.19
   5   5   4 1805.22   66.67
   5  -5   4 1915.53   65.00
  -5  -5  -4 1806.74  105.19
   5  -5   4 1923.61  180.58
  -5   5  -5   69.77   21.50
   5   5   5   90.62   15.62
   5  -5   5  101.94   16.44
  -5  -5  -5  120.15   19.79
   5  -5   5   70.15   14.77
  -5   5  -6 1320.28   94.06
   5   5   6 1297.43  131.57
   5  -5   6  982.22  135.18
  -5  -5  -6 1258.28   72.19
   5  -5   6 1060.41  161.74
   5   5   7  127.90   30.85
  -5   5  -7   81.62   13.70
   5  -5   7   57.52   16.87
  -5  -5  -7  115.74   28.09
  -5   5  -8   66.59   26.47
   5   5   8   71.59   31.97
   5  -5   8   54.85   19.36
  -5  -5  -8   94.42   32.02
  -5   6  12  838.63  155.14
   5   6 -12 1076.17   81.50
  -5  -6  12 1074.39  144.95
   5  -6 -12  965.87  167.01
  -5   6  11   80.50   30.30
   5   6 -11   86.83   28.27
  -5  -6  11   19.39   14.98
   5  -6 -11   53.20   17.17
  -5   6  10 2475.06  325.25
   5   6 -10 2246.43  135.98
  -5  -6  10 2550.68  334.30
   5  -6 -10 2451.70  322.15
  -5   6   9  515.20   44.66
  -5   6   9  510.31   52.17
   5   6  -9  603.12   63.18
  -5  -6   9  643.23   83.98
   5  -6  -9  563.03   57.18
  -5   6   8  923.98   50.38
  -5   6   8  922.97   87.66
   5   6  -8  915.47  119.84
  -5  -6   8  998.35  134.31
   5  -6  -8  818.62  132.25
  -5   6   7  348.06   34.70
  -5   6   7  335.91   46.11
   5   6  -7  411.17   67.49
  -5  -6   7  452.45   59.57
   5  -6  -7  322.07   37.61
  -5   6   6  384.11   37.32
  -5   6   6  355.96   45.94
   5   6  -6  396.21   64.34
   5  -6  -6  386.40   46.03
  -5  -6   6  347.11   54.79
  -5  -6   6  417.02   70.85
  -5   6   5 1706.86   76.46
   5   6  -5 1803.01  164.27
   5   6  -5 1784.61   69.79
  -5   6   5 1905.26   76.09
   5  -6  -5 2079.20   91.01
  -5  -6   5 1810.44   67.09
  -5   6   4 7114.17  217.29
   5   6  -4 7137.72  224.42
   5   6  -4 6870.31  218.93
  -5   6   4 7099.66  221.23
   5  -6  -4 7227.89  226.22
  -5  -6   4 7483.34  229.49
   5   6  -3 3991.70  130.51
   5   6  -3 3948.72  126.64
  -5   6   3 4105.40  136.08
   5  -6  -3 4008.60  131.79
  -5  -6   3 4123.29  131.59
   5   6  -2 4426.29  143.31
   5   6  -2 4370.14  134.40
  -5   6   2 4478.38  146.07
   5  -6  -2 4268.27  137.36
  -5  -6   2 4410.37  145.38
   5   6  -1  894.51   82.29
  -5   6   1  871.01   94.44
  -5  -6   1  742.56   46.06
  -5  -6   1  877.83   98.76
   5  -6  -1  888.17   95.01
   5   6   0  481.40   35.92
  -5   6   0  560.78   59.55
  -5  -6   0  482.23   64.59
   5  -6   0  506.45   71.00
   5   6   1 5108.58  178.95
  -5   6  -1 5121.14  181.61
  -5  -6  -1 5075.74  182.43
   5  -6   1 5181.50  234.17
  -5   6  -2  209.07   24.69
   5   6   2  170.59   24.75
   5  -6   2  125.67   20.65
  -5  -6  -2  201.48   28.21
   5  -6   2  170.90   26.42
  -5   6  -3 2095.50   83.45
   5   6   3 2071.34   79.16
   5  -6   3 2126.90   71.18
  -5  -6  -3 2272.95   88.72
   5  -6   3 2267.02   85.01
  -5   6  -4  278.39   38.19
   5   6   4  284.91   43.13
   5  -6   4  217.36   28.15
  -5  -6  -4  296.45   37.08
   5  -6   4  269.48   31.43
  -5   6  -5  379.75   31.54
   5   6   5  331.35   36.28
   5  -6   5  268.71   43.83
  -5  -6  -5  350.41   34.40
   5  -6   5  343.53   51.45
  -5   6  -6   36.65   10.72
   5   6   6   53.35   14.30
   5  -6   6   18.38   12.97
  -5  -6  -6   -4.06   18.35
   5  -6   6   10.56    8.49
   5   6   7  555.31   84.13
  -5   6  -7  517.41   68.10
  -5  -6  -7  580.53   96.44
   5  -6   7  515.70   82.72
   5   6   8   26.45   10.58
  -5  -6  -8   25.87   12.63
  -5   7  11   85.28   29.24
   5   7 -11  137.73   23.46
  -5  -7  11  119.22   19.92
   5  -7 -11   60.52   23.61
  -5   7  10  622.21  110.41
   5   7 -10  740.66   70.02
  -5  -7  10  716.23   86.22
   5  -7 -10  720.07  115.27
  -5   7   9   37.08   16.96
  -5   7   9   51.44   11.01
   5   7  -9   70.16   14.87
  -5  -7   9   42.23   22.33
   5  -7  -9   75.70   23.78
  -5   7   8  299.08   47.30
  -5   7   8  276.09   41.53
   5   7  -8  321.59   39.99
   5  -7  -8  313.94   60.29
  -5   7   7  224.82   21.19
  -5   7   7  237.55   31.05
   5   7  -7  242.06   34.94
  -5  -7   7  280.53   40.59
   5  -7  -7  240.92   29.45
  -5   7   6  207.34   18.68
  -5   7   6  203.61   42.28
   5   7  -6  250.60   23.69
   5  -7  -6  253.36   22.61
  -5  -7   6  179.29   30.93
  -5  -7   6  177.85   18.72
   5   7  -5  323.86   34.93
   5   7  -5  315.54   29.41
  -5   7   5  303.26   30.65
   5  -7  -5  352.62   42.98
  -5  -7   5  298.52   47.42
   5   7  -4  584.18   49.92
   5   7  -4  503.50   56.80
  -5   7   4  619.44   58.28
   5  -7  -4  551.86   94.55
  -5  -7   4  540.15   71.53
   5   7  -3 1240.89  110.93
   5   7  -3 1195.55   33.04
  -5   7   3 1189.57   44.73
   5  -7  -3 1129.60   47.33
  -5  -7   3 1143.78   46.09
   5   7  -2 3993.17  142.06
   5   7  -2 3934.27  134.06
  -5   7   2 4019.42  145.92
   5  -7  -2 3905.88  140.31
  -5  -7   2 4252.69  151.79
   5   7  -1  582.50   29.74
  -5   7   1  658.95   58.32
  -5  -7   1  686.11   95.75
   5  -7  -1  655.86   71.45
   5   7   0 1109.85  118.93
  -5   7   0 1003.48   96.14
  -5  -7   0  989.58  131.95
   5  -7   0 1102.15  114.22
   5   7   1  106.43   14.80
  -5   7  -1   61.32   15.93
  -5  -7  -1   71.83    9.58
   5  -7   1  101.06   14.94
   5   7   2   15.23   13.30
   5  -7   2   -4.81    8.30
  -5  -7  -2   -9.60   19.61
   5   7   3  208.39   26.29
  -5   7  -3  229.46   25.12
  -5  -7  -3  219.16   27.39
   5  -7   3  233.97   33.52
   5   7   4 1045.04   99.83
  -5   7  -4  937.46  124.48
  -5  -7  -4 1015.18  107.06
   5  -7   4 1016.29   60.49
   5   7   5  334.49   59.21
  -5   7  -5  429.43   49.56
  -5  -7  -5  329.91   45.10
   5  -7   5  300.54   28.36
   5   7   6  615.32   88.69
  -5   7  -6  682.09   68.55
  -5  -7  -6  682.26   68.12
   5  -7   6  639.84   68.81
  -5   7  -7   54.91   24.39
   5  -7   7   30.79   15.38
   5   8 -11   81.01   15.36
   5  -8 -11   51.02   22.12
   5   8 -10  878.27  125.48
   5  -8 -10  918.32  151.45
  -5  -8  10  990.81  150.61
  -5   8   9  153.04   28.55
  -5   8   9  102.16   21.54
   5   8  -9  112.05   23.95
  -5  -8   9  148.17   33.35
   5  -8  -9  192.18   36.67
  -5   8   8   29.87    9.44
  -5   8   8   24.31    6.97
   5   8  -8   52.47   13.03
  -5  -8   8   35.41   10.11
   5  -8  -8   31.62   19.41
   5   8  -7  300.12   44.99
  -5   8   7  251.73   30.72
  -5  -8   7  298.32   42.30
   5  -8  -7  247.66   45.94
   5   8  -6  619.18   97.96
  -5   8   6  619.99   53.07
   5  -8  -6  638.02   89.57
  -5  -8   6  551.83   74.01
  -5  -8   6  649.05  119.24
   5   8  -5 1316.84   81.59
   5   8  -5 1498.12   81.93
  -5   8   5 1402.65  139.04
   5  -8  -5 1237.21  153.69
  -5  -8   5 1420.25   53.08
   5   8  -4 2340.65   84.40
   5   8  -4 2395.18   82.48
  -5   8   4 2297.43   86.24
   5  -8  -4 2330.11   87.03
  -5  -8   4 2430.74   84.32
   5   8  -3 1502.66   60.71
   5   8  -3 1425.26   62.01
  -5   8   3 1451.07  115.63
   5  -8  -3 1364.88   56.44
  -5  -8   3 1414.91   55.68
   5   8  -2 8079.77  251.48
  -5   8   2 7728.77  253.38
  -5  -8   2 7964.71  251.02
   5  -8  -2 7741.05  269.37
   5   8  -1 1281.46   53.79
  -5   8   1 1133.46   50.88
  -5  -8   1 1232.15   55.87
   5  -8  -1 1264.39  145.54
   5   8   0  481.35   67.46
  -5   8   0  503.67   47.48
  -5  -8   0  507.56   67.29
   5  -8   0  500.36   58.91
   5   8   1  693.16   73.48
  -5   8  -1  670.92   54.59
  -5  -8  -1  592.84   80.25
   5  -8   1  690.13   74.66
   5   8   2 1187.72   99.24
  -5   8  -2 1152.16   65.10
  -5  -8  -2 1137.37  155.99
   5  -8   2 1194.34  155.29
   5   8   3  809.27   80.40
  -5   8  -3  771.66   90.75
  -5  -8  -3  760.71   86.21
   5  -8   3  720.91  104.41
   5   8   4  488.26   55.42
  -5   8  -4  493.84   49.98
  -5  -8  -4  479.16   55.22
   5  -8   4  494.30   69.19
   5   8   5   92.21   22.07
  -5   8  -5   87.05   17.88
  -5  -8  -5  112.84   22.13
   5  -8   5  108.02   19.59
   5   8   6   61.93   24.44
  -5   8  -6   83.09   31.21
  -5  -8  -6   75.45   24.18
   5  -8   6   58.59   22.21
   5   8   7  235.67   42.68
  -5   8  -7  141.24   35.53
  -5  -8  -7  202.54   31.71
   5  -8   7  136.91   36.12
   5   9 -10   -3.15   21.03
   5  -9 -10   70.44   30.46
  -5  -9  10   42.83   18.32
   5   9  -9  335.64   53.86
  -5   9   9  248.58   39.81
  -5  -9   9  353.88   52.29
   5  -9  -9  317.56   44.52
  -5   9   8  212.02   36.46
   5   9  -8  226.43   50.07
  -5  -9   8  199.70   34.77
   5   9  -7  416.97   39.90
  -5   9   7  404.94   28.93
  -5  -9   7  565.42   86.60
   5  -9  -7  533.31   92.16
   5   9  -6   50.47   15.34
  -5   9   6   39.81   11.04
   5  -9  -6   41.34   21.67
  -5  -9   6   31.52    7.57
  -5  -9   6   59.46   14.87
   5   9  -5 1221.58   96.72
   5   9  -5  995.27   99.10
  -5   9   5 1082.05  103.54
   5  -9  -5  957.42  148.78
  -5  -9   5  981.25  127.58
   5   9  -4   78.32   11.97
   5   9  -4   85.13   15.58
  -5   9   4   91.78   11.79
   5  -9  -4   76.13   25.82
  -5  -9   4   91.72   16.08
   5   9  -3  309.63   28.29
   5   9  -3  274.91   32.27
  -5   9   3  273.73   26.18
   5  -9  -3  336.59   35.06
  -5  -9   3  300.14   45.77
   5   9  -2 2661.67   88.03
  -5   9   2 2687.97   92.83
  -5  -9   2 2699.21   82.91
  -5  -9   2 2619.10   88.41
   5  -9  -2 2894.86   99.70
   5   9  -1  732.24   50.50
  -5   9   1  640.35   80.95
  -5  -9   1  620.60   62.54
   5  -9  -1  729.42   96.82
   5   9   0  290.39   34.30
  -5   9   0  261.27   26.24
  -5  -9   0  294.87   47.61
   5  -9   0  301.45   37.15
   5   9   1  125.62   15.67
  -5   9  -1  112.56   20.68
  -5  -9  -1  106.08   17.33
   5   9   2  253.62   36.11
  -5   9  -2  229.60   40.14
  -5  -9  -2  219.52   31.39
   5  -9   2  235.48   40.70
   5   9   3  310.68   39.58
  -5   9  -3  292.25   37.46
  -5  -9  -3  324.34   40.24
   5  -9   3  321.54   36.07
   5   9   4  956.72  121.86
  -5   9  -4  978.38   78.32
  -5  -9  -4 1063.80  134.33
   5  -9   4  974.43   98.55
   5   9   5  968.37   47.84
  -5   9  -5  815.82   83.37
  -5  -9  -5  842.15   89.87
   5  -9   5  829.18   86.11
   5   9   6  656.80   78.44
  -5   9  -6  552.68  103.56
  -5  -9  -6  646.01   91.76
   5  -9   6  604.53   85.61
   5  10  -9  261.33   42.43
  -5  10   9  176.57   30.28
  -5 -10   9  270.43   49.98
   5 -10  -9  184.99   35.91
   5  10  -8  147.86   34.35
  -5  10   8   96.32   19.87
  -5 -10   8  100.83   21.53
   5 -10  -8  102.00   27.11
   5  10  -7  139.65   27.63
  -5  10   7  177.77   31.40
  -5 -10   7  219.05   41.32
   5 -10  -7  156.91   36.05
   5  10  -6  445.12   51.32
  -5  10   6  449.52   30.64
   5 -10  -6  499.25   78.83
  -5 -10   6  403.04   63.32
  -5 -10   6  478.80   54.56
   5  10  -5  385.70   42.71
   5  10  -5  327.07   41.64
  -5  10   5  317.94   43.87
   5 -10  -5  340.34   57.28
  -5 -10   5  344.90   59.37
   5  10  -4 1007.05   79.47
   5  10  -4  803.06   79.55
  -5  10   4  973.03   45.23
   5 -10  -4  892.01  121.53
  -5 -10   4  868.05  124.51
   5  10  -3   27.42   16.20
  -5  10   3   22.80   20.70
  -5 -10   3   16.30    9.88
  -5 -10   3    8.53    8.75
   5 -10  -3  -12.49   21.99
   5  10  -2  250.80   21.61
  -5  10   2  315.19   32.40
  -5 -10   2  235.19   53.74
   5 -10  -2  232.27   59.64
   5  10  -1  114.36   16.34
  -5  10   1   99.17   20.26
  -5 -10   1   71.44   24.90
   5 -10  -1   87.46   18.17
   5  10   0  284.09   36.63
  -5  10   0  291.63   40.71
  -5 -10   0  361.67   47.97
   5 -10   0  304.70   49.45
   5  10   1  118.92   18.26
  -5  10  -1   83.76   12.59
  -5 -10  -1   84.32   16.97
   5 -10   1  128.63   18.72
   5  10   2   -3.29   12.46
  -5  10  -2   45.83   22.76
  -5 -10  -2   36.73   15.38
   5 -10   2   24.17   14.52
   5  10   3  733.52   62.93
  -5  10  -3  729.02   45.15
  -5 -10  -3  782.54   90.18
   5 -10   3  750.57   98.44
   5  10   4   30.99   15.04
  -5  10  -4   62.87   27.98
  -5 -10  -4   23.61   17.61
   5 -10   4   20.65   12.64
   5  10   5   70.69   27.94
  -5  10  -5   59.89   27.45
  -5 -10  -5   98.30   35.82
   5 -10   5   38.97   21.69
   5  11  -8  265.23   39.42
  -5  11   8  240.94   36.72
  -5 -11   8  285.07   45.98
   5 -11  -8  222.24   57.15
   5  11  -7  778.02   43.08
  -5  11   7  618.96   78.80
  -5 -11   7  680.65  102.78
   5 -11  -7  627.27  110.32
   5  11  -6   16.02   15.23
  -5  11   6   70.19   25.89
   5 -11  -6   37.81   17.32
  -5 -11   6   18.43   10.18
  -5 -11   6   50.27   11.38
   5  11  -5  425.07   31.12
   5  11  -5  443.63   45.57
  -5  11   5  541.49   51.04
   5 -11  -5  422.93   64.63
  -5 -11   5  456.77   59.87
   5  11  -4   10.36   15.47
  -5  11   4  -21.09   20.84
  -5 -11   4   18.56    8.14
  -5 -11   4   38.82   18.47
   5 -11  -4   12.62   16.15
   5  11  -3  381.85   42.11
  -5  11   3  338.00   29.50
  -5 -11   3  262.27   40.69
  -5 -11   3  391.52   60.73
   5 -11  -3  374.78   60.06
   5  11  -2  306.74   28.97
  -5  11   2  279.43   26.25
  -5 -11   2  343.29   54.58
   5 -11  -2  318.75   38.87
   5  11  -1  190.58   39.00
  -5  11   1  196.39   40.08
  -5 -11   1  175.82   29.86
   5 -11  -1  184.37   35.03
   5  11   0  141.52   27.56
  -5  11   0   95.30   29.68
  -5 -11   0  171.31   34.10
   5 -11   0  145.55   30.40
   5  11   1   25.31   10.25
  -5  11  -1   46.44   13.67
  -5 -11  -1   22.04   13.77
   5  11   2  143.98   30.47
   5 -11   2  145.30   26.06
  -5 -11  -2  133.64   28.86
   5  11   3   86.74   23.59
  -5  11  -3  108.53   33.73
  -5 -11  -3  133.92   34.32
   5 -11   3  129.07   32.89
   5  11   4  828.31   50.92
  -5  11  -4  651.87   80.68
  -5 -11  -4  640.25  108.15
   5 -11   4  645.24   76.31
   5  12  -7  290.01   49.51
  -5  12   7  308.87   49.44
  -5 -12   7  351.17   66.00
   5 -12  -7  279.82   39.51
   5  12  -6  342.39   43.39
  -5  12   6  405.54   34.33
  -5 -12   6  414.21   62.05
   5 -12  -6  343.19   63.24
   5  12  -5  179.35   34.49
  -5  12   5  141.72   33.47
  -5 -12   5  157.05   40.14
   5 -12  -5  172.59   37.97
   5  12  -4  141.19   41.17
  -5  12   4  203.96   54.42
  -5 -12   4  145.67   30.81
  -5 -12   4  102.05   35.75
   5 -12  -4  198.56   54.27
   5  12  -3   41.97    9.85
  -5  12   3   66.61   22.78
  -5 -12   3   46.51   13.00
   5 -12  -3  131.88   36.64
   5  12  -2   56.63   20.80
  -5  12   2   47.09   15.41
  -5 -12   2   55.82   21.18
   5 -12  -2   43.18    9.86
   5  12  -1  116.42   28.12
  -5  12   1   98.41   18.83
  -5 -12   1  136.75   24.86
   5 -12  -1  140.23   28.04
   5  12   0   80.06   24.23
  -5  12   0  119.93   38.23
  -5 -12   0  122.24   31.50
   5 -12   0  105.64   24.72
   5  12   1  587.53   36.18
  -5  12  -1  529.50   39.40
  -5 -12  -1  482.87   67.47
   5 -12   1  573.41   77.90
   5  12   2   -1.75   18.10
  -5  12  -2   60.32   33.93
  -5 -12  -2   26.07   14.79
   5 -12   2  -21.80   23.89
   5  12   3  168.88   35.12
  -5  12  -3  147.07   37.19
  -5 -12  -3  153.71   39.82
   5 -12   3  138.23   29.08
  -5  13   5  113.04   25.94
  -5 -13   5  107.67   22.71
   5  13  -4   -9.93   15.57
  -5  13   4   51.90   25.07
  -5 -13   4    5.30   11.22
   5 -13  -4   -1.98   23.03
   5  13  -3   21.93   10.94
  -5  13   3   69.79   26.95
  -5 -13   3   39.44   20.34
   5 -13  -3   87.06   34.12
   5  13  -2  244.50   41.23
  -5  13   2  280.75   39.85
  -5 -13   2  256.79   98.30
   5 -13  -2  347.69   56.35
   5  13  -1   24.18   17.41
  -5  13   1   32.61   24.80
  -5 -13   1   46.93   15.82
   5 -13  -1   71.50   27.94
   5  13   0  108.75   18.70
  -5  13   0   69.79   31.87
  -5 -13   0   52.87   21.36
   5 -13   0   83.69   35.07
   5  13   1   52.82   11.54
  -5  13  -1   44.27   14.90
  -5 -13  -1   45.31   18.46
   5 -13   1   53.70   15.28
  -6   0  13  477.46   75.53
   6   0 -13  518.76   64.07
  -6   0  12   51.10   14.21
   6   0 -12    7.46   18.53
  -6   0  11   23.94   13.04
   6   0 -11   31.47   13.89
  -6   0  10  156.81   18.75
   6   0 -10   97.93   19.53
  -6   0   9   48.24   19.39
   6   0  -9    5.74    6.60
  -6   0   8 4145.63  125.26
   6   0  -8 4172.72  158.49
  -6   0   7  417.72   44.12
   6   0  -7  369.07   44.61
  -6   0   7  326.17   28.48
  -6   0   6 7018.88  218.69
   6   0  -6 6787.81  211.14
  -6   0   6 6689.04  204.49
   6   0  -5 5135.03  131.78
   6   0  -5 5213.34  134.35
  -6   0   5 5250.08  129.96
   6   0  -4  989.60   43.35
   6   0  -4  974.49   54.12
  -6   0   4 1007.52   43.17
   6   0  -3 1855.86   57.87
   6   0  -3 1880.22   44.72
  -6   0   3 1933.41   49.24
   6   0  -2  364.67   36.03
   6   0  -2  326.50   17.08
  -6   0   2  405.98   60.19
   6   0  -1  109.98   15.64
   6   0  -1  105.80   16.08
  -6   0   1  114.49   15.51
   6   0   0  100.50   11.23
   6   0   0   69.41   11.53
  -6   0   0   98.70   13.26
   6   0   1  760.03  100.10
   6   0   1  710.49   46.42
  -6   0  -1  736.71   85.00
   6   0   2  917.25  101.11
   6   0   2  836.97   71.82
  -6   0  -2  913.14  121.50
   6   0   3 3574.29  110.66
   6   0   3 3215.20  112.55
  -6   0  -3 3352.53  106.39
   6   0   4  203.59   24.28
   6   0   4  161.67   24.41
  -6   0  -4  241.98   34.74
   6   0   5  603.07   66.94
  -6   0  -5  576.46   39.05
   6   0   6  222.70   30.60
  -6   0  -6  279.70   36.17
   6   0   7  878.87  132.65
  -6   0  -7  723.50   79.69
   6   0   8  244.59   51.06
  -6   0  -8  235.30   45.61
  -6   1  13   45.58   12.24
   6   1 -13  136.18   33.89
  -6  -1  13   72.71   10.10
   6  -1 -13   79.22   17.40
  -6   1  12  734.45   57.60
   6   1 -12  708.55   76.25
   6  -1 -12  595.33  113.22
  -6  -1  12  602.26   80.02
   6   1 -11   62.80   22.38
  -6   1  11   -3.38   10.99
  -6  -1  11    6.75   13.88
   6  -1 -11   52.16   22.77
  -6   1  10  199.14   22.46
   6   1 -10  220.34   32.42
   6  -1 -10  180.76   22.67
  -6  -1  10  151.53   26.92
  -6   1   9 1820.84   65.82
   6   1  -9 1805.00   68.48
  -6  -1   9 1939.01   86.22
   6  -1  -9 2074.97  149.01
  -6   1   8 1199.51  131.33
   6   1  -8 1129.96  105.47
  -6  -1   8 1092.66  109.86
   6  -1  -8 1006.74   89.49
  -6   1   7 5470.04  188.19
  -6   1   7 5517.90  192.58
   6   1  -7 5375.37  208.63
  -6  -1   7 5422.05  189.50
   6  -1  -7 5480.03  193.19
  -6   1   6 3273.32  103.86
  -6   1   6 3258.29  108.54
   6   1  -6 3174.38  106.01
   6  -1  -6 3061.96  112.54
  -6  -1   6 3217.39  107.11
  -6  -1   6 3247.87  129.57
  -6   1   5 3167.62   88.31
   6   1  -5 3100.50   89.17
   6   1  -5 3067.79   84.08
  -6   1   5 3208.37   84.33
   6  -1  -5 3370.43  155.00
  -6  -1   5 3133.81   81.62
   6   1  -4  423.79   38.31
   6   1  -4  456.58   56.82
  -6   1   4  397.57   61.12
   6  -1  -4  411.28   58.12
  -6  -1   4  391.82   48.20
   6  -1  -4  417.39   46.08
   6   1  -3  163.57   23.08
   6   1  -3  169.89   29.23
  -6   1   3  170.15   24.92
   6  -1  -3  140.82   26.69
  -6  -1   3  182.99   27.20
   6  -1  -3  171.68   15.73
  -6   1   2 2566.51   59.01
   6   1  -2 2588.26   58.47
   6   1  -2 2610.97   56.96
   6  -1  -2 2620.43   57.50
  -6  -1   2 2582.26   74.32
   6  -1  -2 2680.31   57.03
  -6   1   1 1734.00   47.41
   6   1  -1 1742.26   45.32
   6   1  -1 1766.39   36.69
   6  -1  -1 1778.40   40.61
  -6  -1   1 1724.86   50.44
   6  -1  -1 1773.05   43.66
   6   1   0 1048.65  100.79
   6   1   0  964.77   54.39
  -6   1   0  891.29   36.80
   6  -1   0  913.07   28.98
  -6  -1   0  902.38   40.48
   6  -1   0  926.42   32.95
   6   1   1  459.06   52.24
   6   1   1  466.53   15.44
  -6   1  -1  438.74   24.63
   6  -1   1  478.66   28.31
  -6  -1  -1  527.12   78.35
   6   1   2  549.80   56.63
   6   1   2  544.85   38.06
  -6   1  -2  614.87   36.99
   6  -1   2  562.58   48.44
  -6  -1  -2  574.74   88.65
   6  -1   2  560.49   65.39
   6   1   3 2226.67   75.52
  -6   1  -3 2367.83   80.11
   6  -1   3 2299.33   76.91
  -6  -1  -3 2268.57   81.74
   6  -1   3 2288.62   95.45
   6   1   4  571.15   30.73
  -6   1  -4  598.86   61.62
   6  -1   4  647.96   29.82
  -6  -1  -4  540.98   68.30
   6  -1   4  475.30   68.79
   6   1   5   17.38   18.90
  -6   1  -5   21.49    8.99
   6  -1   5  -15.11   14.95
  -6  -1  -5   -2.27   17.84
   6  -1   5    9.73    4.95
   6   1   6  666.08   83.89
  -6   1  -6  699.83   78.96
   6  -1   6  655.87   73.71
  -6  -1  -6  710.24   86.66
   6   1   7 1357.92  101.43
  -6   1  -7 1613.16  265.67
   6  -1   7 1489.82   54.92
  -6  -1  -7 1350.41  188.14
   6   1   8  192.19   37.92
  -6   1  -8  152.69   43.69
   6  -1   8  200.51   40.57
  -6  -1  -8  157.67   26.98
  -6   2  13   86.93   32.68
   6   2 -13  146.48   34.92
  -6  -2  13  115.55   27.35
   6  -2 -13  132.46   29.14
  -6   2  12  179.74   34.92
   6   2 -12  234.87   32.28
  -6  -2  12  161.93   30.66
   6  -2 -12  168.66   35.58
  -6   2  11  516.80   40.00
   6   2 -11  521.06   50.17
  -6  -2  11  542.70   60.08
   6  -2 -11  509.16   59.91
  -6   2  10  486.60   61.57
   6   2 -10  371.41   27.67
  -6  -2  10  388.64   46.62
   6  -2 -10  418.93   44.35
  -6   2   9  207.57   33.26
   6   2  -9  204.73   26.45
  -6  -2   9  243.68   36.11
   6  -2  -9  219.27   36.64
  -6   2   8 3423.92  107.86
  -6   2   8 3286.09  143.19
   6   2  -8 3273.45  113.83
  -6  -2   8 3298.44  117.47
   6  -2  -8 3529.17  200.77
  -6   2   7  342.40   29.84
  -6   2   7  387.25   55.85
   6   2  -7  389.28   35.88
  -6  -2   7  402.12   52.65
   6  -2  -7  436.19   51.83
  -6   2   6 1307.78   49.86
  -6   2   6 1419.51   67.38
   6   2  -6 1358.85   54.41
   6  -2  -6 1311.17   71.18
  -6  -2   6 1340.91   46.95
  -6  -2   6 1359.46   54.95
  -6   2   5  502.88   63.12
   6   2  -5  559.27   50.15
   6   2  -5  525.13   56.07
  -6   2   5  495.62   68.97
   6  -2  -5  489.03   31.21
  -6  -2   5  546.14   23.42
   6   2  -4 1767.54  130.93
   6   2  -4 1695.60   51.15
  -6   2   4 1702.05   54.57
   6  -2  -4 1716.67   52.61
  -6  -2   4 1693.90   49.85
   6  -2  -4 1767.37   51.68
   6   2  -3 1838.48  138.08
   6   2  -3 1883.32   41.84
  -6   2   3 1873.91   46.79
   6  -2  -3 1888.37   46.06
  -6  -2   3 1887.72   46.27
   6  -2  -3 1970.11   44.55
   6   2  -2  798.45   87.63
   6   2  -2  806.79   32.96
  -6   2   2  856.23  103.06
   6  -2  -2  943.41   75.42
  -6  -2   2  821.35   38.21
   6  -2  -2  830.38   35.48
   6   2  -1  151.62   17.42
   6   2  -1  150.08   20.15
  -6   2   1  169.71   15.97
   6  -2  -1  187.36   25.66
  -6  -2   1  148.71   24.62
   6  -2  -1  149.69   18.73
  -6   2   0 2704.74   99.92
   6   2   0 2604.29   74.29
   6  -2   0 2660.92   72.15
  -6  -2   0 2676.54   77.83
   6  -2   0 2532.59   69.50
  -6   2  -1 1001.61  107.66
   6   2   1  951.05   80.11
   6  -2   1  906.79   93.12
  -6  -2  -1  863.22   35.51
   6  -2   1  865.43   30.13
   6   2   2 7173.56  250.99
  -6   2  -2 7514.73  258.01
   6  -2   2 7526.42  253.48
  -6  -2  -2 7412.31  253.98
   6  -2   2 7431.99  249.69
  -6   2  -3 2002.36  102.67
   6   2   3 1796.42   66.98
   6  -2   3 1746.07   59.23
  -6  -2  -3 1777.33   68.23
   6  -2   3 1908.69   80.94
   6   2   4  565.07   69.43
  -6   2  -4  610.32   64.97
   6  -2   4  574.78   65.10
  -6  -2  -4  570.63   71.66
   6  -2   4  526.89   53.86
  -6   2  -5   97.55   17.08
   6   2   5   58.00   29.05
   6  -2   5   67.39    8.71
  -6  -2  -5   75.64   18.17
   6  -2   5   43.14    6.58
  -6   2  -6  799.03   85.14
   6   2   6  784.54   37.31
   6  -2   6  617.13  107.54
  -6  -2  -6  758.09  117.80
   6  -2   6  577.85   74.01
   6   2   7  727.77  103.94
  -6   2  -7  978.98   42.09
   6  -2   7  822.50   40.75
  -6  -2  -7  833.74   86.32
   6   2   8  556.43   92.25
  -6   2  -8  515.40   74.82
   6  -2   8  646.09   54.46
  -6  -2  -8  517.58   64.97
  -6   3  12  776.58   86.77
   6   3 -12  738.53  109.94
  -6  -3  12  838.06   90.04
   6  -3 -12  775.85   91.60
  -6   3  11  188.14   34.82
   6   3 -11  214.33   37.43
  -6  -3  11  270.10   47.53
   6  -3 -11  194.04   34.32
  -6   3  10  246.99   41.18
   6   3 -10  249.83   34.71
  -6  -3  10  223.48   31.88
   6  -3 -10  232.49   38.78
  -6   3   9  113.99   17.85
   6   3  -9  173.91   24.99
  -6  -3   9  147.10   26.12
   6  -3  -9  147.22   25.27
  -6   3   8 1572.10   55.97
  -6   3   8 1596.71   72.67
   6   3  -8 1492.14  102.38
  -6  -3   8 1688.01   70.31
   6  -3  -8 1578.65  159.75
  -6   3   7 1469.90   57.94
  -6   3   7 1450.78   51.07
   6   3  -7 1555.70  103.16
  -6  -3   7 1466.45   67.20
   6  -3  -7 1481.15   60.83
  -6   3   6 4371.04  152.24
  -6   3   6 4374.47  152.42
   6   3  -6 4190.88  147.36
   6  -3  -6 4292.64  155.30
  -6  -3   6 4299.53  148.25
  -6  -3   6 4335.20  154.71
  -6   3   5  422.03   46.11
   6   3  -5  412.07   23.87
   6   3  -5  473.37   49.45
  -6   3   5  403.32   42.25
   6  -3  -5  436.91   26.09
  -6  -3   5  419.77   30.85
  -6   3   4 1793.30   52.41
   6   3  -4 1905.60   59.94
   6   3  -4 1776.64   53.95
  -6   3   4 1776.87   59.78
   6  -3  -4 1897.57   71.86
  -6  -3   4 1920.99   56.12
   6   3  -3 1067.73   38.96
   6   3  -3 1029.98   32.20
  -6   3   3 1040.12   39.27
   6  -3  -3 1003.32   35.93
  -6  -3   3 1086.63   36.71
   6  -3  -3  982.82   76.72
   6   3  -2  134.41   15.74
   6   3  -2   96.96   18.15
  -6   3   2  102.21   13.84
   6  -3  -2  128.30   20.13
  -6  -3   2  111.99   14.55
   6  -3  -2  113.76    9.81
   6   3  -1  933.77   37.07
   6   3  -1  882.62   26.07
  -6   3   1  903.46   46.13
   6  -3  -1  933.47   32.57
  -6  -3   1  934.77   34.99
   6  -3  -1 1029.87   78.95
   6   3   0  546.65   64.04
  -6   3   0  496.10   53.92
   6  -3   0  443.39   47.37
  -6  -3   0  490.43   70.89
   6  -3   0  582.61   69.96
  -6   3  -1 1544.48   62.19
   6   3   1 1432.25   67.19
   6  -3   1 1462.58   51.91
  -6  -3  -1 1495.22  114.80
   6  -3   1 1473.90   55.32
   6   3   2  872.12   96.01
  -6   3  -2  843.45  107.87
   6  -3   2  756.47   85.54
  -6  -3  -2  751.64   78.48
   6  -3   2  808.12   34.36
  -6   3  -3  269.06   28.62
   6   3   3  249.09   37.87
   6  -3   3  237.45   21.46
  -6  -3  -3  225.52   31.20
   6  -3   3  221.01   24.98
   6   3   4  998.42   58.52
  -6   3  -4 1078.73  140.11
   6  -3   4  971.50  130.19
  -6  -3  -4 1006.67  116.46
   6  -3   4  934.05  101.30
  -6   3  -5  145.73   31.96
   6   3   5  133.31   30.14
   6  -3   5   80.26   18.10
  -6  -3  -5  107.02   21.92
   6  -3   5   89.75   12.73
  -6   3  -6  313.60   49.52
   6   3   6  380.00   50.53
   6  -3   6  297.12   40.41
  -6  -3  -6  321.91   30.92
   6  -3   6  248.92   37.14
  -6   3  -7  368.77   48.69
   6   3   7  471.00   37.61
   6  -3   7  315.58   70.45
  -6  -3  -7  420.22   38.71
   6  -3   7  301.76   57.80
   6   3   8  410.62   39.53
  -6   3  -8  282.26   44.28
   6  -3   8  312.87   53.11
  -6  -3  -8  336.71   38.70
  -6   4  12  470.72   80.36
   6   4 -12  426.06   86.81
  -6  -4  12  414.35   53.66
   6  -4 -12  423.51   56.15
  -6   4  11 1580.69  195.03
   6   4 -11 1647.30  341.24
  -6  -4  11 1584.95  164.71
   6  -4 -11 1541.16  159.76
  -6   4  10  263.89   31.45
   6   4 -10  325.62   52.69
  -6  -4  10  322.92   53.33
   6  -4 -10  261.50   31.75
  -6   4   9  284.50   24.68
   6   4  -9  268.02   29.64
  -6  -4   9  236.05   32.55
   6  -4  -9  271.28   29.20
  -6   4   8 1709.65   59.05
  -6   4   8 1854.40  156.31
   6   4  -8 1791.63   67.43
  -6  -4   8 1895.57  177.35
   6  -4  -8 1750.37  106.10
  -6   4   7  744.63   70.97
  -6   4   7  827.75   80.74
   6   4  -7  879.56   94.25
  -6  -4   7  873.49  102.49
   6  -4  -7  826.08   99.81
  -6   4   6 4413.79  196.82
   6   4  -6 4160.58  148.62
   6   4  -6 4194.60  147.97
  -6   4   6 4413.87  154.36
   6  -4  -6 4257.06  154.74
  -6  -4   6 4409.18  149.22
  -6   4   5 1217.77   56.85
   6   4  -5 1221.93  103.44
   6   4  -5 1184.20   57.34
  -6   4   5 1203.29   47.67
   6  -4  -5 1142.37   46.84
  -6  -4   5 1237.49   45.13
  -6   4   4 1494.32   51.73
   6   4  -4 1466.83   73.36
   6   4  -4 1424.47   50.98
  -6   4   4 1413.28   68.52
   6  -4  -4 1327.76   57.11
  -6  -4   4 1418.00   65.36
  -6   4   3   58.23    7.06
   6   4  -3   35.21   17.73
   6   4  -3   59.82    7.96
  -6   4   3   85.38    8.54
   6  -4  -3   58.79    9.01
  -6  -4   3   55.75   13.32
   6   4  -2 1499.67   50.79
   6   4  -2 1624.35   43.78
  -6   4   2 1585.34   54.55
   6  -4  -2 1780.80   87.18
  -6  -4   2 1734.41   55.49
   6  -4  -2 1644.75   44.87
   6   4  -1  786.21   91.39
  -6   4   1  815.21   87.92
   6  -4  -1  770.71   58.37
  -6  -4   1  790.64   32.10
   6  -4  -1  787.85   92.46
   6   4   0 6567.66  205.95
  -6   4   0 6814.93  214.55
   6  -4   0 6893.43  207.99
  -6  -4   0 6989.76  219.04
   6  -4   0 6636.25  209.48
   6   4   1  564.56   31.31
  -6   4  -1  569.62   31.40
   6  -4   1  519.46   48.40
  -6  -4  -1  530.99  101.00
   6  -4   1  685.88   76.77
   6   4   2 7727.92   87.62
  -6   4  -2 7539.02  213.61
   6  -4   2 7534.61  207.45
  -6  -4  -2 7634.61   90.84
   6  -4   2 7543.84  216.04
  -6   4  -3 1472.68   56.55
   6   4   3 1580.28   61.69
   6  -4   3 1586.24   54.72
  -6  -4  -3 1547.77  171.81
   6  -4   3 1663.49   85.22
  -6   4  -4  323.74   39.06
   6   4   4  362.87   45.98
   6  -4   4  255.29   31.64
  -6  -4  -4  280.72   35.39
   6  -4   4  277.82   28.01
  -6   4  -5  234.08   31.59
   6   4   5  282.05   34.72
   6  -4   5  210.27   35.37
  -6  -4  -5  279.72   37.31
   6  -4   5  225.04   30.76
  -6   4  -6  400.01   67.89
   6   4   6  377.61   35.89
   6  -4   6  267.69   69.46
  -6  -4  -6  350.39   45.49
   6  -4   6  309.07   58.01
  -6   4  -7  260.13   63.86
   6   4   7  208.54   44.63
   6  -4   7  256.72   62.95
  -6  -4  -7  270.10   56.14
   6  -4   7  246.79   59.03
  -6   5  12  426.98   85.26
   6   5 -12  371.69   64.15
  -6  -5  12  527.65   76.33
   6  -5 -12  454.37   57.24
  -6   5  11  732.19   91.65
   6   5 -11  718.06   79.28
  -6  -5  11  712.15  100.30
   6  -5 -11  655.23   88.30
  -6   5  10   42.38   10.91
   6   5 -10   57.49   12.66
  -6  -5  10   43.90   17.66
   6  -5 -10   35.74   16.08
  -6   5   9  256.22   33.90
  -6   5   9  301.22   48.97
   6   5  -9  309.30   38.43
  -6  -5   9  280.07   47.17
   6  -5  -9  286.23   45.46
  -6   5   8  681.04   65.22
  -6   5   8  870.34   86.46
   6   5  -8  827.49  125.74
  -6  -5   8  795.29  118.39
   6  -5  -8  835.56  125.96
  -6   5   7  146.57   16.92
  -6   5   7  174.00   19.61
   6   5  -7  158.74   15.51
  -6  -5   7  140.65   23.43
   6  -5  -7  187.24   31.84
  -6   5   6 5525.48  153.53
   6   5  -6 4904.32  144.02
   6   5  -6 5025.86  155.93
  -6   5   6 5465.23  157.05
   6  -5  -6 5208.90  152.68
  -6  -5   6 5243.48  144.82
  -6   5   5 1299.40   74.34
   6   5  -5 1296.59   85.68
   6   5  -5 1267.19   56.23
  -6   5   5 1327.70  119.78
  -6  -5   5 1323.42   61.75
  -6   5   4  630.33   38.41
   6   5  -4  695.35   87.09
   6   5  -4  804.88   66.82
  -6   5   4  666.16   75.35
  -6  -5   4  724.44   41.07
  -6   5   3 2119.26   70.63
   6   5  -3 2181.17   87.88
   6   5  -3 2171.59   70.90
  -6   5   3 2105.30  104.65
   6  -5  -3 2172.52   77.70
  -6  -5   3 2254.12   77.87
   6   5  -2  589.44   54.89
   6   5  -2  521.81   28.96
  -6   5   2  705.63   76.88
   6  -5  -2  630.12   75.15
  -6  -5   2  540.48   85.82
   6   5  -1 4035.19  143.82
  -6   5   1 4000.67  144.03
   6  -5  -1 4045.57  135.82
  -6  -5   1 4048.67  150.37
   6  -5  -1 4174.17  171.40
   6   5   0  439.57   49.24
  -6   5   0  420.10   40.41
   6  -5   0  331.09   41.59
  -6  -5   0  437.05   62.80
   6  -5   0  472.25   64.75
   6   5   1 1140.89  101.69
  -6   5  -1 1217.52  135.96
   6  -5   1 1152.06   37.64
  -6  -5  -1 1252.46   51.59
   6  -5   1 1177.34   50.64
  -6   5  -2 1671.10   68.87
   6   5   2 1625.23   71.29
   6  -5   2 1732.31   59.89
  -6  -5  -2 1782.32   74.56
   6  -5   2 1689.06   67.58
  -6   5  -3 1115.14  132.74
   6   5   3 1202.48  112.25
   6  -5   3 1123.96   55.60
  -6  -5  -3 1124.30  122.97
   6  -5   3 1104.42  112.58
  -6   5  -4  117.83   21.28
   6   5   4  140.27   18.46
   6  -5   4  105.99   14.49
  -6  -5  -4  126.80   14.81
   6  -5   4  131.85   18.22
  -6   5  -5   27.05   10.11
   6   5   5   66.21   15.14
   6  -5   5   15.82   12.60
  -6  -5  -5   73.70   20.54
   6  -5   5   65.88   16.22
   6   5   6  948.87  118.28
  -6   5  -6 1077.49   45.87
  -6  -5  -6  960.56  123.74
   6  -5   6  992.22  111.71
   6   5   7  441.23   63.46
  -6   5  -7  436.29   51.79
  -6  -5  -7  443.81   54.20
   6  -5   7  314.79   66.96
  -6   6  11  534.75  108.07
   6   6 -11  639.01   78.07
  -6  -6  11  540.02   75.90
   6  -6 -11  523.88   74.86
  -6   6  10  -13.03   19.04
   6   6 -10  -12.20   18.98
  -6  -6  10   52.12   16.25
   6  -6 -10   27.71    8.80
  -6   6   9  487.56   79.83
  -6   6   9  700.73   80.63
   6   6  -9  676.12   75.86
  -6  -6   9  636.01   94.26
   6  -6  -9  696.99   84.68
  -6   6   8  313.53   37.24
  -6   6   8  393.08   33.90
   6   6  -8  431.00   56.18
  -6  -6   8  426.20   59.40
   6  -6  -8  463.19   55.41
  -6   6   7   58.22    8.05
   6   6  -7   42.70    8.85
   6  -6  -7   85.12   12.77
  -6   6   6  445.89   32.29
   6   6  -6  477.43   26.46
   6   6  -6  475.74   75.02
  -6   6   6  457.30   46.41
   6  -6  -6  411.19   54.59
  -6  -6   6  358.84   63.54
  -6   6   5  135.58   23.75
   6   6  -5  140.22   15.19
   6   6  -5  164.08   20.70
  -6   6   5  179.99   17.40
   6  -6  -5  182.22   26.12
  -6  -6   5  172.42   16.74
   6   6  -4 1261.54   80.11
   6   6  -4 1193.45   78.94
  -6   6   4 1356.84  110.67
   6  -6  -4 1252.34   52.40
  -6  -6   4 1168.79   43.49
   6   6  -3  256.84   21.41
   6   6  -3  294.04   32.66
  -6   6   3  334.24   27.72
   6  -6  -3  268.02   40.31
  -6  -6   3  293.69   41.80
   6   6  -2 4539.73  161.34
  -6   6   2 4474.38  161.81
  -6  -6   2 4465.94  159.78
   6  -6  -2 4252.44  160.12
   6   6  -1 1351.91  109.27
  -6   6   1 1253.26   53.53
  -6  -6   1 1194.39   49.52
   6  -6  -1 1244.91   60.03
   6   6   0 5317.29  156.36
  -6   6   0 5050.56  151.31
  -6  -6   0 5233.67  157.32
   6  -6   0 5312.80  154.15
   6   6   1   95.80   14.46
   6  -6   1  110.10   22.20
   6   6   2 1956.57  199.06
  -6   6  -2 1938.87   74.50
  -6  -6  -2 2032.35   74.96
   6  -6   2 2067.36   72.34
   6   6   3   63.51    9.72
  -6   6  -3   85.21   19.42
  -6  -6  -3   50.51   20.76
   6  -6   3   78.09   13.79
   6   6   4  161.06   28.69
  -6   6  -4   90.26   21.48
  -6  -6  -4   68.47   12.59
   6   6   5  173.36   32.89
  -6   6  -5  147.32   26.50
  -6  -6  -5  153.74   27.37
   6  -6   5  143.26   35.29
   6   6   6   82.23   27.26
  -6   6  -6   74.11   20.75
  -6  -6  -6  101.46   24.92
   6  -6   6   59.35   25.72
   6   6   7   33.70   21.18
  -6   6  -7  103.51   22.46
  -6  -6  -7   54.39   13.60
   6  -6   7   25.20   14.80
  -6   7  11  393.24   72.15
   6   7 -11  398.99   41.95
  -6  -7  11  466.22   75.90
   6  -7 -11  410.66   67.58
  -6   7  10  492.09   89.36
   6   7 -10  708.65   68.63
  -6  -7  10  717.85   84.42
   6  -7 -10  718.75  104.18
  -6   7   9  164.05   34.13
  -6   7   9  161.64   31.62
   6   7  -9  159.30   25.97
  -6  -7   9  222.94   36.04
   6  -7  -9  173.97   39.47
  -6   7   8   84.57   16.77
  -6   7   8   46.23   11.65
   6   7  -8  114.39   16.82
  -6  -7   8   96.36   20.66
   6  -7  -8  111.78   30.05
  -6   7   7   27.83    9.94
  -6   7   7   31.21   10.40
   6   7  -7  -15.55   15.85
  -6  -7   7   -5.31   21.52
   6  -7  -7   -7.13   20.42
   6   7  -6  658.83   49.60
   6   7  -6  601.79   84.49
  -6   7   6  715.33   83.68
   6  -7  -6  710.29  102.01
  -6  -7   6  608.65   81.78
   6   7  -5 2585.11  124.87
   6   7  -5 2395.07   76.93
  -6   7   5 2355.77  189.35
   6  -7  -5 2516.39  109.99
  -6  -7   5 2532.94   79.93
   6   7  -4  335.84   27.04
   6   7  -4  313.89   44.44
  -6   7   4  280.74   22.11
   6  -7  -4  360.36   57.64
  -6  -7   4  346.87   62.81
   6   7  -3 2824.31   98.51
   6   7  -3 2771.93   92.98
  -6   7   3 2731.51  101.21
   6  -7  -3 2867.07  101.44
  -6  -7   3 2882.58  100.94
   6   7  -2  991.27   36.29
  -6   7   2 1110.08   91.34
  -6  -7   2 1030.73   46.47
   6  -7  -2  988.39  123.14
   6   7  -1 3104.98  108.64
  -6   7   1 3050.58  109.88
  -6  -7   1 3106.84  110.56
   6  -7  -1 3127.57  108.50
   6   7   0  285.63   32.41
  -6   7   0  311.91   41.53
  -6  -7   0  276.97   40.30
   6  -7   0  280.38   31.32
   6   7   1 1430.90   55.68
  -6   7  -1 1498.69   61.57
  -6  -7  -1 1637.85  112.99
   6  -7   1 1498.71  160.95
   6   7   2  202.62   25.26
   6  -7   2  197.06   22.63
  -6  -7  -2  247.75   33.89
   6   7   3  920.76   59.25
  -6   7  -3  909.00   39.32
  -6  -7  -3  901.11  126.49
   6  -7   3 1020.94  113.10
   6   7   4   66.30   25.77
  -6   7  -4   28.17   19.39
  -6  -7  -4   84.33   20.33
   6  -7   4   81.88   25.97
   6   7   5  177.94   38.26
  -6   7  -5  212.15   28.36
  -6  -7  -5  223.85   31.51
   6  -7   5  241.20   52.71
   6   7   6  688.72   89.27
  -6   7  -6  753.09   46.02
  -6  -7  -6  796.40   95.55
   6  -7   6  628.64   79.03
   6   8 -10  486.67   58.27
   6  -8 -10  605.52   82.43
  -6  -8  10  545.11   73.11
   6   8  -9   82.62   16.60
  -6   8   9   50.52   18.62
  -6  -8   9  102.31   22.62
   6  -8  -9   74.22   22.56
   6   8  -8  314.70   41.31
  -6   8   8  244.59   31.96
  -6  -8   8  351.86   86.09
   6  -8  -8  360.44   69.21
   6   8  -7  112.98   17.59
  -6   8   7   67.47   16.84
  -6  -8   7   83.36   13.85
   6  -8  -7  128.78   27.09
   6   8  -6  137.16   18.76
   6   8  -6  154.62   18.07
  -6   8   6  148.98   19.08
   6  -8  -6  152.38   25.73
  -6  -8   6  153.00   23.81
   6   8  -5  215.42   19.85
   6   8  -5  194.00   15.94
  -6   8   5  185.70   21.45
   6  -8  -5  221.60   40.13
  -6  -8   5  227.75   28.33
   6   8  -4  450.71   31.22
   6   8  -4  438.41   26.50
  -6   8   4  412.01   52.26
   6  -8  -4  405.93   55.68
  -6  -8   4  428.38   72.26
   6   8  -3  110.92   16.92
   6   8  -3  125.81   20.65
  -6   8   3  119.85   19.55
   6  -8  -3  179.39   28.84
  -6  -8   3  198.68   24.46
   6   8  -2 1667.92  162.57
  -6   8   2 1543.48   60.69
  -6  -8   2 1530.89   60.02
   6  -8  -2 1545.44   71.34
   6   8  -1 1378.67   96.20
  -6   8   1 1278.39   58.39
  -6  -8   1 1308.38   55.02
   6  -8  -1 1419.38  162.07
   6   8   0 2450.77  234.19
  -6   8   0 2458.77  119.48
  -6  -8   0 2595.29  123.34
   6  -8   0 2501.99  121.62
   6   8   1  472.97   74.60
  -6   8  -1  435.65   46.37
  -6  -8  -1  420.41   43.49
   6  -8   1  450.91   62.74
   6   8   2  484.61   48.88
  -6   8  -2  526.31   74.26
  -6  -8  -2  499.81   56.59
   6  -8   2  472.28   40.98
   6   8   3  138.94   27.02
  -6   8  -3  107.19   23.19
  -6  -8  -3  131.98   23.51
   6  -8   3  189.48   30.52
   6   8   4  163.38   31.20
  -6   8  -4  213.25   42.44
  -6  -8  -4  259.85   32.75
   6  -8   4  181.69   34.27
   6   8   5  142.62   35.12
  -6   8  -5  128.33   31.30
  -6  -8  -5   97.28   28.80
   6  -8   5  163.76   34.70
   6   8   6  132.10   36.73
  -6   8  -6  188.28   39.77
  -6  -8  -6  170.89   36.47
   6  -8   6  156.99   33.20
   6   9 -10  397.95   58.95
   6  -9 -10  477.39   46.16
  -6  -9  10  419.64   72.75
   6   9  -9    6.61   11.15
  -6   9   9  -29.19   18.70
  -6  -9   9   -8.63   18.95
   6  -9  -9   60.36   22.06
   6   9  -8   97.87   18.90
  -6   9   8   64.01   16.22
  -6  -9   8   41.36   13.61
   6  -9  -8   90.84   17.88
   6   9  -7  377.91   36.57
  -6   9   7  395.45   48.27
  -6  -9   7  418.93   78.82
   6  -9  -7  443.79   80.32
   6   9  -6   25.58   17.45
   6   9  -6   41.96   22.08
  -6   9   6   67.56   27.20
   6  -9  -6   51.65   20.98
  -6  -9   6   59.08   14.49
   6   9  -5  432.88   27.84
   6   9  -5  410.77   62.94
  -6   9   5  477.90   57.94
   6  -9  -5  428.02   71.94
  -6  -9   5  431.69   73.88
   6   9  -4 1377.69  143.50
   6   9  -4 1191.94   94.71
  -6   9   4 1430.14  139.64
   6  -9  -4 1255.48   69.58
  -6  -9   4 1207.57  154.48
   6   9  -3  968.27   69.71
  -6   9   3  686.69   82.51
  -6  -9   3  742.58   92.58
   6  -9  -3  770.07   93.65
   6   9  -2  619.52   68.37
  -6   9   2  647.58   46.28
  -6  -9   2  531.40   94.82
   6  -9  -2  547.65   82.67
   6   9  -1  288.64   20.44
  -6   9   1  273.23   37.43
  -6  -9   1  280.18   42.82
   6  -9  -1  238.51   31.52
   6   9   0  127.52   16.64
  -6   9   0   83.16   16.47
  -6  -9   0  166.24   23.89
   6  -9   0  109.76   20.94
   6   9   1 1046.16   94.43
  -6   9  -1 1001.09   75.93
  -6  -9  -1  995.63  132.30
   6  -9   1 1060.56  134.93
   6   9   2  365.42   32.05
  -6   9  -2  297.85   51.12
  -6  -9  -2  325.39   48.49
   6  -9   2  306.56   37.64
   6   9   3  267.42   32.45
  -6   9  -3  347.85   29.62
  -6  -9  -3  339.02   49.01
   6  -9   3  305.04   38.12
   6   9   4   88.18   22.94
  -6   9  -4   65.55   25.50
  -6  -9  -4   75.48   23.09
   6  -9   4   98.64   18.36
   6   9   5  210.15   28.04
  -6   9  -5  144.26   34.87
  -6  -9  -5  243.19   39.26
   6  -9   5  242.03   40.91
   6  10  -9    3.44   19.97
  -6  10   9   -1.72   18.62
  -6 -10   9   27.45   14.07
   6 -10  -9   -1.42   19.72
   6  10  -8  727.23   88.30
  -6  10   8  625.76   36.41
  -6 -10   8  637.86  100.52
   6 -10  -8  782.90   42.45
   6  10  -7  139.99   29.87
  -6  10   7  142.84   28.64
  -6 -10   7  199.19   28.17
   6 -10  -7  192.74   48.38
   6  10  -6  713.67   82.00
   6  10  -6  616.88  101.73
  -6  10   6  692.59   72.91
   6 -10  -6  633.71   96.32
  -6 -10   6  632.48   97.06
   6  10  -5  142.20   27.10
   6  10  -5   84.38   20.03
  -6  10   5  120.24   31.85
   6 -10  -5  121.11   22.78
  -6 -10   5  106.76   19.60
   6  10  -4 1256.08   94.62
  -6  10   4 1159.05   58.67
   6 -10  -4 1217.51  149.41
   6  10  -3  566.68   66.33
  -6  10   3  695.28   61.32
  -6 -10   3  546.84   95.13
   6 -10  -3  654.72   60.56
   6  10  -2  867.73   42.44
  -6  10   2  883.49  111.15
  -6 -10   2  831.00  123.29
   6 -10  -2  962.86   97.81
   6  10  -1  310.74   31.22
  -6  10   1  371.71   35.17
  -6 -10   1  243.85   38.63
   6 -10  -1  355.31   60.07
   6  10   0  329.05   29.14
  -6  10   0  344.19   39.78
  -6 -10   0  342.39   42.78
   6 -10   0  299.20   37.10
   6  10   1    1.67    6.72
  -6  10  -1   34.17   12.41
  -6 -10  -1   23.88   22.95
   6 -10   1   48.23   14.25
   6  10   2   12.66   19.85
  -6  10  -2   -0.07   21.28
  -6 -10  -2   22.67   12.95
   6 -10   2   45.14   13.95
   6  10   3  234.19   51.87
  -6  10  -3  160.92   33.46
  -6 -10  -3  169.41   34.40
   6 -10   3  195.45   39.07
   6  10   4  800.99  116.76
  -6  10  -4  890.86   54.71
  -6 -10  -4  846.79   97.68
   6 -10   4  833.50  103.64
   6  11  -8  176.89   33.61
  -6  11   8  179.96   46.38
  -6 -11   8  331.12   53.49
   6 -11  -8  329.11   34.94
   6  11  -7  482.10   55.00
  -6  11   7  430.95   61.29
  -6 -11   7  470.37   75.40
   6 -11  -7  536.60   79.82
   6  11  -6  314.69   30.43
  -6  11   6  237.54   39.82
  -6 -11   6  260.15   39.76
   6 -11  -6  344.87   60.70
   6  11  -5  268.79   40.13
   6  11  -5  249.98   36.73
  -6  11   5  340.29   32.74
   6 -11  -5  310.95   48.16
  -6 -11   5  265.60   46.55
   6  11  -4  159.17   38.38
  -6  11   4  229.68   33.14
  -6 -11   4   93.37   21.17
   6 -11  -4  197.33   42.88
   6  11  -3   60.18   20.74
  -6  11   3   10.19   21.66
  -6 -11   3   14.64    6.43
   6 -11  -3   42.29   16.79
   6  11  -2  895.50  104.54
  -6  11   2  971.95   58.02
  -6 -11   2  835.82  131.31
   6 -11  -2  855.71  109.66
   6  11  -1  -20.68   15.88
  -6  11   1  -33.56   22.14
  -6 -11   1   30.11   17.58
   6 -11  -1   35.96   11.71
   6  11   0   30.35   15.76
  -6  11   0   54.93   25.14
  -6 -11   0   32.89   15.27
   6 -11   0   40.03   15.89
   6  11   1  140.14   28.11
   6 -11   1  172.95   34.17
  -6 -11  -1  125.56   30.38
   6  11   2   31.78   21.92
  -6  11  -2   20.89   21.55
  -6 -11  -2   45.86   15.45
   6 -11   2   33.00   12.54
   6  11   3   24.84   16.71
  -6  11  -3   18.22   20.97
  -6 -11  -3   -4.80   17.31
   6 -11   3   26.73   13.48
  -6  12   6  152.76   40.21
   6 -12  -6  149.79   36.29
  -6 -12   6  174.47   36.40
   6  12  -5   36.72   15.47
  -6  12   5   89.61   29.97
  -6 -12   5   35.38   16.32
   6  12  -4  154.00   37.57
  -6  12   4   79.93   25.59
  -6 -12   4  100.28   30.29
   6 -12  -4  140.94   27.43
   6  12  -3   66.15   22.03
  -6  12   3   27.78   22.96
  -6 -12   3   37.25   14.84
   6 -12  -3   44.28   18.76
   6  12  -2  377.19   50.83
  -6  12   2  332.35  100.07
  -6 -12   2  323.43   98.21
   6 -12  -2  342.12   45.53
   6  12  -1   57.16   17.26
  -6  12   1   70.21   24.34
  -6 -12   1   82.56   25.24
   6 -12  -1  108.42   27.63
   6  12   0  171.59   27.72
  -6  12   0  106.53   26.50
  -6 -12   0  125.35   21.61
   6 -12   0  111.96   26.31
   6  12   1  124.68   32.61
  -6  12  -1  144.44   39.74
  -6 -12  -1  136.51   33.98
   6 -12   1   86.30   25.15
   6  13  -3   93.52   20.38
  -6  13   3  138.07   33.21
  -6 -13   3   92.70   29.01
   6 -13  -3  123.09   30.16
   6  13  -2  232.09   28.05
  -6  13   2  261.91   40.23
  -6 -13   2  271.81   39.50
   6 -13  -2  262.27   42.91
  -7   0  12   50.88   19.48
   7   0 -12   50.39   18.37
  -7   0  11  981.75  121.21
   7   0 -11  925.94  142.20
  -7   0  10 1041.71  121.54
   7   0 -10 1000.27  107.34
  -7   0   9  648.82   79.37
   7   0  -9  651.43   85.45
  -7   0   8  210.68   25.44
   7   0  -8  216.84   42.73
  -7   0   7 3044.05  134.14
   7   0  -7 2982.94   94.65
  -7   0   7 2940.36   85.95
  -7   0   6   -2.62   15.84
   7   0  -6   19.89   16.40
  -7   0   6   -5.72    9.16
   7   0  -5 3279.73  107.58
   7   0  -5 3359.24  126.49
  -7   0   5 3410.74  109.92
   7   0  -4    2.21   12.23
   7   0  -4   15.37   11.53
  -7   0   4    8.33    6.84
   7   0  -3 6303.63  195.59
   7   0  -3 5943.21  185.56
  -7   0   3 6208.61  193.35
   7   0  -2  -12.93   11.63
  -7   0   2    7.61   14.60
   7   0  -1   39.70   15.55
   7   0  -1   34.15    5.32
  -7   0   1   57.15    7.05
   7   0   0  254.98   18.58
   7   0   0  298.89   29.88
  -7   0   0  325.43   44.82
   7   0   1  282.34   30.86
   7   0   1  270.19   18.14
  -7   0  -1  305.38   31.18
   7   0   211024.11  105.12
   7   0   210259.88  306.27
  -7   0  -210829.83  114.17
   7   0   3  680.34   67.27
  -7   0  -3  709.52   91.77
   7   0   4  336.01   39.23
  -7   0  -4  387.96   35.54
   7   0   5 1913.92   53.29
  -7   0  -5 2007.79  245.48
   7   0   6  -12.08   19.65
  -7   0  -6   -2.03   18.67
   7   0   7  208.41   37.29
  -7   0  -7  155.72   34.73
  -7   1  12  433.49   51.17
   7   1 -12  357.73   53.80
  -7  -1  12  370.44   37.29
   7  -1 -12  347.63   45.67
  -7   1  11  123.71   22.31
   7   1 -11  111.33   35.97
   7  -1 -11  165.32   28.77
  -7  -1  11  185.05   32.41
  -7   1  10  648.59   68.20
   7   1 -10  711.75   71.99
  -7  -1  10  767.57   78.05
   7  -1 -10  705.28   72.86
  -7   1   9  124.28   21.86
   7   1  -9  125.17   16.45
  -7  -1   9  144.24   18.80
   7  -1  -9  112.28   22.36
  -7   1   8 2538.27  103.29
   7   1  -8 2425.83   83.54
  -7  -1   8 2446.24   84.45
   7  -1  -8 2416.15  145.01
  -7   1   7   54.87    9.04
  -7   1   7   37.13    9.22
   7   1  -7   71.54   14.02
   7  -1  -7   78.47   25.73
  -7  -1   7   68.70   11.18
  -7  -1   7   27.16   13.30
   7   1  -610011.80  336.03
  -7   1   610295.17   79.70
   7  -1  -6 9938.70  337.23
  -7  -1   610126.78   80.20
  -7  -1   6 9678.36  331.98
  -7   1   5  276.42   34.53
   7   1  -5  308.06   32.26
   7   1  -5  304.21   38.10
   7  -1  -5  279.56   39.78
  -7  -1   5  256.41   38.23
   7  -1  -5  285.52   30.48
  -7   1   4 1692.93   61.37
   7   1  -4 1773.22  131.62
   7   1  -4 1859.92  111.42
   7  -1  -4 1747.08   62.53
  -7  -1   4 1847.44   65.24
   7  -1  -4 1796.62  147.14
  -7   1   3  342.31   40.61
   7   1  -3  327.44   31.83
   7   1  -3  325.13   33.05
   7  -1  -3  311.84   17.55
  -7  -1   3  349.37   51.31
   7  -1  -3  348.85   30.38
  -7   1   2 1847.02   68.24
   7   1  -2 1767.80   72.68
   7   1  -2 1859.92   66.63
   7  -1  -2 1919.30   65.23
  -7  -1   2 2024.33   72.88
   7  -1  -2 1995.27   68.47
  -7   1   1  354.71   44.45
   7   1  -1  380.18   40.92
   7   1  -1  356.39   14.97
   7  -1  -1  463.59   47.03
  -7  -1   1  347.11   49.73
   7  -1  -1  359.75   34.66
   7   1   0   36.07   15.32
   7   1   0   30.50    4.62
   7  -1   0   41.09    6.11
   7  -1   0   63.58   17.00
  -7  -1   0   30.84   13.37
   7   1   1 2304.89   76.03
  -7   1  -1 2313.77   79.71
   7  -1   1 2437.43   78.48
  -7  -1  -1 2311.83   78.59
   7  -1   1 2353.12   73.57
   7   1   2  640.62   50.85
  -7   1  -2  652.49   54.15
   7  -1   2  578.21   60.30
  -7  -1  -2  691.49  100.77
   7  -1   2  622.71   29.23
   7   1   3 1104.58  147.55
  -7   1  -3 1235.14  151.88
   7  -1   3 1248.21   64.39
  -7  -1  -3 1219.84  132.45
   7  -1   3 1067.33   70.44
   7   1   4 2152.55   56.79
  -7   1  -4 1971.80   55.18
   7  -1   4 2083.01   55.23
  -7  -1  -4 2200.80   77.85
   7   1   5  167.75   34.66
  -7   1  -5  175.92   33.39
  -7  -1  -5  162.48   32.62
   7  -1   5  183.54   38.60
   7   1   6  235.05   23.69
  -7   1  -6  257.42   25.16
  -7  -1  -6  311.16   37.65
   7  -1   6  270.35   41.48
   7   1   7  324.35   34.84
  -7   1  -7  219.33   46.60
  -7  -1  -7  216.17   40.28
   7  -1   7  321.04   35.30
  -7   2  12   49.52   17.08
   7   2 -12   24.53   15.86
  -7  -2  12   76.09   21.29
   7  -2 -12   59.47   16.98
  -7   2  11  947.45   89.34
   7   2 -11  934.93   56.81
  -7  -2  11  984.04   98.95
   7  -2 -11  920.70  113.84
  -7   2  10 1968.77  304.99
   7   2 -10 1872.74  195.51
  -7  -2  10 2028.98  325.38
   7  -2 -10 1769.25   68.06
  -7   2   9  760.79   92.24
   7   2  -9  810.08   81.16
  -7  -2   9  812.64  106.31
   7  -2  -9  783.61   67.19
  -7   2   8  359.74   37.57
  -7   2   8  415.78   57.52
   7   2  -8  488.54   65.19
  -7  -2   8  481.24   58.18
   7  -2  -8  429.49   39.89
  -7   2   7 1915.25   66.94
  -7   2   7 1936.57   73.69
   7   2  -7 1830.87   75.25
   7  -2  -7 1884.40   72.38
  -7  -2   7 1890.45   62.95
  -7  -2   7 1981.13   76.82
  -7   2   6  250.30   34.42
   7   2  -6  305.74   28.32
   7   2  -6  325.17   36.96
  -7   2   6  265.42   41.25
   7  -2  -6  304.61   35.66
  -7  -2   6  256.49   41.51
  -7   2   5   34.71   11.28
   7   2  -5   15.73   12.01
   7   2  -5   27.43    5.75
  -7   2   5   28.52    6.92
   7  -2  -5   36.73   10.77
  -7  -2   5    8.58   11.77
   7   2  -4  242.37   22.97
   7   2  -4  201.27   30.80
  -7   2   4  259.56   38.33
   7  -2  -4  202.64   24.00
  -7  -2   4  216.38   32.24
   7  -2  -4  213.11   25.75
   7   2  -3  490.81   55.51
   7   2  -3  486.97   34.33
  -7   2   3  480.62   49.35
   7  -2  -3  503.68   73.45
  -7  -2   3  440.19   74.23
   7  -2  -3  466.84   21.58
   7   2  -2  362.99   22.21
   7   2  -2  307.59   20.32
  -7   2   2  335.47   38.57
   7  -2  -2  355.99   33.91
  -7  -2   2  315.70   48.90
   7  -2  -2  320.68   30.91
   7   2  -1 2844.68  104.08
   7   2  -1 2894.05   89.78
  -7   2   1 2901.38  101.30
   7  -2  -1 2846.34  110.95
  -7  -2   1 2753.25   98.57
   7  -2  -1 2939.79   96.00
   7   2   0  187.64   21.89
  -7   2   0  122.56   19.07
   7  -2   0  133.00   19.11
  -7  -2   0  156.81   19.95
   7  -2   0  176.27   24.43
   7   2   1 1777.47   64.02
  -7   2  -1 1811.06   65.24
   7  -2   1 1923.61   63.22
  -7  -2  -1 1813.47  116.39
   7  -2   1 1816.52   68.44
   7   2   2 3280.46  114.39
  -7   2  -2 3415.52  172.74
   7  -2   2 3294.40  109.25
  -7  -2  -2 3132.22  110.14
   7  -2   2 3235.85  148.77
   7   2   3  653.95   70.47
  -7   2  -3  622.51   69.60
   7  -2   3  586.48   73.02
  -7  -2  -3  597.82  117.96
   7  -2   3  550.82   69.20
  -7   2  -4  131.32   20.12
   7  -2   4  147.42   23.84
  -7  -2  -4  176.60   30.28
   7  -2   4  140.70   19.67
   7   2   5 1414.12  144.25
  -7   2  -5 1366.91   72.44
  -7  -2  -5 1407.67  130.85
   7  -2   5 1415.19   47.84
   7   2   6  438.45   78.00
  -7   2  -6  549.02   76.05
  -7  -2  -6  461.22   63.25
   7  -2   6  526.61   34.64
   7   2   7  145.03   33.53
  -7   2  -7  118.71   25.64
  -7  -2  -7  149.49   39.00
   7  -2   7  110.35   32.68
  -7   3  12  467.00   63.98
   7   3 -12  487.40   82.22
  -7  -3  12  485.28   58.57
   7  -3 -12  448.89   59.99
  -7   3  11  343.30   50.94
   7   3 -11  364.37   39.96
  -7  -3  11  436.66   42.80
   7  -3 -11  444.56   41.05
  -7   3  10  767.50   75.15
   7   3 -10  650.28   76.71
  -7  -3  10  715.85   84.26
   7  -3 -10  758.33   99.35
  -7   3   9 2427.18  143.16
   7   3  -9 2334.11  180.34
  -7  -3   9 2481.90  121.79
   7  -3  -9 2147.15  120.07
  -7   3   8  134.39   13.39
  -7   3   8  132.37   17.74
   7   3  -8  142.09   28.96
  -7  -3   8  177.68   16.44
   7  -3  -8  169.39   26.84
  -7   3   7  973.46   50.39
  -7   3   7 1024.91   55.74
   7   3  -7  968.39   34.00
   7  -3  -7 1112.19   68.06
  -7  -3   7  864.62   45.84
  -7  -3   7 1030.70  138.34
  -7   3   6 6320.22  211.47
   7   3  -6 6164.72  176.29
   7   3  -6 6304.47  177.95
  -7   3   6 6441.03  180.50
   7  -3  -6 6057.37  176.61
  -7  -3   6 6254.50  173.21
  -7   3   5 1573.31   79.15
   7   3  -5 1538.55   63.19
   7   3  -5 1497.17   71.89
  -7   3   5 1549.33   64.09
   7  -3  -5 1667.15   67.23
  -7  -3   5 1532.79   59.18
   7   3  -4  267.45   27.62
   7   3  -4  250.67   30.93
  -7   3   4  260.76   28.94
   7  -3  -4  275.12   45.65
  -7  -3   4  250.86   38.19
   7  -3  -4  247.57   17.04
   7   3  -3 3485.08  116.44
   7   3  -3 3550.22  164.71
  -7   3   3 3360.01  137.01
   7  -3  -3 3360.74  114.50
  -7  -3   3 3466.75  113.87
   7  -3  -3 3483.83  110.35
   7   3  -2 5550.18  192.59
   7   3  -2 5283.27  176.60
  -7   3   2 5548.07  193.79
   7  -3  -2 5647.48  203.28
  -7  -3   2 5492.56  195.19
   7  -3  -2 5706.45  192.60
   7   3  -1 2196.87  158.00
  -7   3   1 2061.01   81.52
  -7  -3   1 1981.11   78.74
   7  -3  -1 2181.40   78.98
  -7   3   0  124.98   12.77
   7   3   0  122.07   15.65
   7  -3   0  129.75   12.09
  -7  -3   0  123.82   17.55
   7  -3   0  120.15   20.42
   7   3   1 2522.91   97.37
  -7   3  -1 2576.81   92.99
   7  -3   1 2565.30   93.42
  -7  -3  -1 2573.09  129.32
   7  -3   1 2413.60   91.54
  -7   3  -2  708.70   88.91
   7   3   2  718.35   87.38
   7  -3   2  645.56   26.34
  -7  -3  -2  675.14  115.30
   7  -3   2  678.79   59.17
   7   3   3  602.81   67.00
  -7   3  -3  558.78   88.52
   7  -3   3  446.70   78.92
  -7  -3  -3  558.44   59.26
   7  -3   3  522.18   50.37
  -7   3  -4 1661.06  187.16
   7   3   4 1664.36  129.99
   7  -3   4 1607.64   41.70
  -7  -3  -4 1639.41   91.74
   7  -3   4 1582.64   41.14
  -7   3  -5  614.62   54.62
   7   3   5  690.31   78.02
   7  -3   5  666.03   40.57
  -7  -3  -5  655.78  105.58
   7  -3   5  544.94   65.66
   7   3   6  143.05   33.65
  -7   3  -6  182.96   38.97
  -7  -3  -6  122.74   27.04
   7  -3   6  164.95   33.18
   7   3   7  212.43   47.61
  -7   3  -7  177.46   37.46
  -7  -3  -7  172.64   42.82
   7  -3   7  223.99   30.63
  -7   4  12  227.76   37.27
   7   4 -12  246.72   51.76
  -7  -4  12  188.88   29.42
   7  -4 -12  160.24   37.32
  -7   4  11  545.19   77.77
   7   4 -11  652.91   88.35
  -7  -4  11  607.17   58.66
   7  -4 -11  530.04   75.03
  -7   4  10 1316.15   69.65
   7   4 -10 1251.17  108.24
  -7  -4  10 1245.39  145.27
   7  -4 -10 1050.24  114.26
  -7   4   9 1213.88  120.45
   7   4  -9 1107.98   42.51
  -7  -4   9 1163.83  167.03
   7  -4  -9 1201.39  167.61
  -7   4   8   96.41   19.51
  -7   4   8   89.45   12.21
   7   4  -8  108.50   20.55
  -7  -4   8  113.12   18.06
   7  -4  -8  119.86   19.62
  -7   4   7  178.17   22.54
  -7   4   7  231.00   30.78
   7   4  -7  168.86   20.42
   7  -4  -7  194.07   19.33
  -7  -4   7  145.60   23.86
  -7  -4   7  196.76   29.83
  -7   4   6  519.88   48.79
   7   4  -6  560.50   75.08
   7   4  -6  586.91   67.71
  -7   4   6  497.74   63.42
   7  -4  -6  504.44   61.33
  -7  -4   6  500.10   79.09
  -7   4   5  711.54   34.43
   7   4  -5  674.54   43.48
   7   4  -5  775.58   57.10
  -7   4   5  657.49   75.12
   7  -4  -5  787.38  114.65
  -7  -4   5  721.49   25.18
  -7   4   4   24.71    7.83
   7   4  -4   33.34   10.96
   7   4  -4   -2.68    8.55
  -7   4   4   22.86    8.65
   7  -4  -4   -4.87   24.04
  -7  -4   4   21.40    7.41
   7   4  -3 1535.87  128.00
   7   4  -3 1459.20   54.31
  -7   4   3 1516.59   64.03
   7  -4  -3 1562.46   57.62
  -7  -4   3 1639.01   65.31
   7   4  -2  636.90   66.65
  -7   4   2  668.56   65.47
  -7  -4   2  584.45   89.89
   7  -4  -2  560.64   41.66
   7   4  -1 4883.82  143.54
  -7   4   1 4982.69  147.91
   7  -4  -1 5175.12  142.92
  -7  -4   1 4894.87  146.30
   7  -4  -1 4892.08  194.32
  -7   4   0  347.81   26.43
   7   4   0  440.55   49.45
   7  -4   0  362.86   36.52
  -7  -4   0  448.23   70.50
   7  -4   0  470.46   56.43
  -7   4  -1  631.31   57.27
   7   4   1  538.82   46.88
   7  -4   1  565.30   70.10
  -7  -4  -1  608.61   70.61
   7  -4   1  672.14   53.29
  -7   4  -2 1256.70  135.84
   7   4   2 1281.79  131.11
   7  -4   2 1137.72   64.81
  -7  -4  -2 1234.19  135.69
   7  -4   2 1316.21  115.41
   7   4   3  527.34   68.65
  -7   4  -3  490.32   50.10
   7  -4   3  384.93   59.26
  -7  -4  -3  522.01   59.96
   7  -4   3  467.10   70.54
  -7   4  -4  278.98   40.19
   7   4   4  256.28   35.04
   7  -4   4  213.74   34.04
  -7  -4  -4  300.55   42.42
   7  -4   4  259.76   31.19
  -7   4  -5   39.61   12.85
   7   4   5   -7.86   18.50
   7  -4   5   54.37   17.59
  -7  -4  -5   31.18   12.79
   7  -4   5   48.38   19.89
  -7   4  -6  439.93   60.52
   7   4   6  474.76   60.35
   7  -4   6  530.13   33.32
  -7  -4  -6  531.98   65.52
   7  -4   6  389.67   67.81
  -7   5  12  285.45   45.25
   7   5 -12  271.41   37.91
  -7  -5  12  235.72   33.04
   7  -5 -12  257.49   49.75
  -7   5  11   87.77   25.32
   7   5 -11  113.03   34.57
  -7  -5  11   99.41   28.40
   7  -5 -11   95.71   30.80
  -7   5  10  348.29   41.28
   7   5 -10  353.98   37.81
  -7  -5  10  335.68   44.13
   7  -5 -10  368.23   46.07
  -7   5   9  446.78   37.94
   7   5  -9  449.19   80.88
  -7  -5   9  498.73   74.12
   7  -5  -9  380.04   42.05
  -7   5   8  187.74   28.04
  -7   5   8  228.55   20.27
   7   5  -8  257.40   24.13
  -7  -5   8  215.99   41.55
   7  -5  -8  267.42   34.32
  -7   5   7  366.07   46.56
  -7   5   7  361.60   55.57
   7   5  -7  349.39   51.34
  -7  -5   7  387.51   49.65
   7  -5  -7  398.77   53.48
  -7   5   6 5296.12  148.63
   7   5  -6 5214.01  157.39
   7   5  -6 5363.57  154.19
  -7   5   6 5514.11  159.56
   7  -5  -6 5435.83  161.94
  -7  -5   6 5255.20  153.35
  -7   5   5 1502.73   90.36
   7   5  -5 1534.84  105.80
   7   5  -5 1574.07   86.42
  -7   5   5 1444.36   58.79
   7  -5  -5 1381.65   57.02
  -7  -5   5 1427.34   53.56
  -7   5   4 1675.66   83.38
   7   5  -4 1797.10   78.57
   7   5  -4 1647.95   53.26
  -7   5   4 1694.49  173.29
   7  -5  -4 1831.63   64.32
  -7  -5   4 1857.44   71.39
  -7   5   3  673.21   31.98
   7   5  -3  782.80   69.41
   7   5  -3  774.92   40.76
  -7   5   3  820.37   34.24
   7  -5  -3  818.56  100.20
  -7  -5   3  842.18  111.78
   7   5  -2 2811.06   90.45
  -7   5   2 2838.86   93.18
  -7  -5   2 2968.26   96.27
   7  -5  -2 2866.06  158.69
   7   5  -1   68.85   12.16
  -7   5   1   34.42   11.81
  -7  -5   1   43.70   15.43
   7  -5  -1   83.69   12.64
   7   5   0  512.98   78.01
  -7   5   0  509.52   52.03
   7  -5   0  530.19   17.44
  -7  -5   0  521.97   67.34
   7  -5   0  538.95   61.38
   7   5   1  143.16   21.37
  -7   5  -1  169.67   18.43
   7  -5   1  143.93   12.44
  -7  -5  -1  127.74   20.77
   7  -5   1  190.14   24.44
   7   5   2  657.90   45.95
  -7   5  -2  687.00   71.55
   7  -5   2  452.30   77.49
  -7  -5  -2  675.72  104.11
   7  -5   2  671.25   92.25
   7   5   3   38.60   14.02
  -7   5  -3   16.30   11.38
   7  -5   3   37.63   10.27
  -7  -5  -3   57.19   10.79
   7  -5   3   16.98   10.39
  -7   5  -4  888.98   84.45
   7   5   4  948.37   92.56
   7  -5   4  622.02   98.79
  -7  -5  -4  886.21   85.48
   7  -5   4  878.56  130.17
   7   5   5   70.89   25.19
  -7   5  -5   59.68   15.77
  -7  -5  -5   32.98   13.08
   7  -5   5   32.07   13.39
   7   5   6   35.54   18.81
  -7   5  -6   43.73   18.17
  -7  -5  -6   71.69   25.81
   7  -5   6   21.94   15.50
  -7   6  11  872.90  101.21
   7   6 -11 1058.72   86.90
  -7  -6  11 1055.93  113.81
   7  -6 -11  934.32  104.58
  -7   6  10  189.33   29.00
   7   6 -10  214.05   33.63
  -7  -6  10  226.24   26.88
   7  -6 -10  186.57   41.00
  -7   6   9  225.22   23.25
  -7   6   9  253.42   31.22
   7   6  -9  285.38   27.15
  -7  -6   9  325.20   43.87
   7  -6  -9  268.19   25.11
  -7   6   8  181.17   27.77
  -7   6   8  187.98   26.93
   7   6  -8  179.52   27.61
  -7  -6   8  187.49   30.77
   7  -6  -8  166.13   37.79
  -7   6   7   78.87   10.45
  -7   6   7   61.05    7.63
   7   6  -7  107.09   15.98
  -7  -6   7   70.49   17.30
   7  -6  -7   44.35   17.77
  -7   6   6 2314.86  157.95
   7   6  -6 2541.64  178.53
   7   6  -6 2367.03  129.13
  -7   6   6 2560.46  120.04
   7  -6  -6 2280.79  109.63
  -7  -6   6 2569.60  116.02
   7   6  -5  544.81   53.44
   7   6  -5  522.08   32.61
  -7   6   5  565.72   53.51
   7  -6  -5  603.20   66.69
  -7  -6   5  497.76   70.23
   7   6  -4   36.74   10.19
   7   6  -4   61.56   10.77
   7  -6  -4   47.83    8.79
  -7  -6   4   58.81    9.25
   7   6  -3 1292.36   87.88
  -7   6   3 1396.53  133.68
  -7  -6   3 1382.29   63.75
   7  -6  -3 1531.80   67.01
   7   6  -2  349.06   37.32
  -7   6   2  367.09   30.39
  -7  -6   2  356.96   59.01
   7  -6  -2  373.81   46.46
   7   6  -1 1025.00   78.67
  -7   6   1 1013.74  112.11
  -7  -6   1  966.77  104.22
   7  -6  -1 1009.21   56.53
   7   6   0 1134.10  107.31
  -7   6   0 1318.00  146.34
  -7  -6   0 1136.64  165.04
   7  -6   0 1196.90  124.61
   7   6   1 1370.03   71.71
  -7   6  -1 1376.98  180.53
  -7  -6  -1 1334.86  174.67
   7  -6   1 1547.26   88.91
   7   6   2  473.92   49.09
  -7   6  -2  553.47   66.40
  -7  -6  -2  499.71   57.18
   7  -6   2  466.96   63.19
   7   6   3  111.88   20.72
  -7   6  -3   82.87   20.15
  -7  -6  -3  130.12   26.84
   7  -6   3  107.64   20.24
   7   6   4  271.64   51.45
  -7   6  -4  283.96   29.61
  -7  -6  -4  357.80   37.76
   7  -6   4  301.02   41.12
   7   6   5  101.52   31.00
  -7   6  -5  125.09   27.65
  -7  -6  -5  122.51   37.67
   7  -6   5   91.66   23.67
   7   6   6  564.33   53.75
  -7   6  -6  530.00   89.35
  -7  -6  -6  506.90   69.69
   7  -6   6  439.82   71.51
   7   7 -11  160.25   39.30
   7  -7 -11  103.45   25.46
  -7  -7  11  203.36   38.38
   7   7 -10  146.66   30.67
   7  -7 -10  121.68   39.49
   7   7  -9  213.88   36.91
  -7   7   9  153.76   27.65
  -7  -7   9  288.13   33.68
   7  -7  -9  206.05   23.58
   7   7  -8  237.32   29.11
  -7   7   8  188.21   31.16
  -7  -7   8  287.61   37.94
   7  -7  -8  162.38   34.86
   7   7  -7 1315.31   42.70
  -7   7   7 1224.37  122.44
  -7  -7   7 1244.15  129.41
   7  -7  -7 1194.31  161.19
   7   7  -6  635.15   71.81
   7   7  -6  528.04   63.96
  -7   7   6  592.47   70.15
   7  -7  -6  596.98   88.97
  -7  -7   6  518.34   85.48
   7   7  -5  471.10   44.57
   7   7  -5  431.37   45.49
  -7   7   5  553.38   41.16
   7  -7  -5  416.20   66.02
  -7  -7   5  484.91   82.07
   7   7  -4 1671.83  167.20
   7   7  -4 1576.49   73.83
  -7   7   4 1578.13  171.54
   7  -7  -4 1661.72   83.63
  -7  -7   4 1694.55   83.30
  -7  -7   3   82.01   14.11
   7   7  -2 1413.16   73.20
  -7   7   2 1322.43   74.17
  -7  -7   2 1407.67   73.35
   7  -7  -2 1447.61   73.57
   7   7  -1  224.00   23.20
  -7   7   1  233.81   26.54
  -7  -7   1  241.95   43.28
   7  -7  -1  211.05   22.45
   7   7   0 2339.36  110.13
  -7   7   0 2174.69  219.27
  -7  -7   0 2204.73  106.15
   7  -7   0 2184.40  101.31
   7   7   1  247.13   32.90
  -7   7  -1  207.77   34.16
  -7  -7  -1  235.34   46.71
   7  -7   1  340.67   39.60
   7   7   2 1107.01   90.17
  -7   7  -2 1177.76   52.58
  -7  -7  -2 1086.44  144.07
   7  -7   2 1191.11  133.35
   7   7   3  294.15   34.11
  -7   7  -3  301.04   50.09
  -7  -7  -3  375.50   48.96
   7  -7   3  287.01   38.51
   7   7   4  403.62   53.65
  -7   7  -4  357.41   53.49
  -7  -7  -4  364.41   55.07
   7  -7   4  387.24   42.42
   7   7   5  141.58   25.97
  -7   7  -5  145.51   35.49
  -7  -7  -5  158.66   26.57
   7  -7   5  161.51   31.75
   7   8 -10  112.13   22.32
   7  -8 -10  158.07   37.08
  -7  -8  10  151.15   24.74
   7   8  -9    7.69   11.05
  -7   8   9    1.51   17.46
  -7  -8   9   -6.88   15.81
   7  -8  -9   33.12   13.42
   7   8  -8  229.90   38.38
  -7   8   8  228.57   37.69
  -7  -8   8  246.29   48.25
   7  -8  -8  245.92   44.27
   7   8  -7   72.72   14.26
  -7   8   7  113.54   26.93
  -7  -8   7  107.82   21.98
   7  -8  -7  112.55   26.70
   7   8  -6  704.23   62.27
   7   8  -6  641.92   50.54
   7  -8  -6  767.00   97.15
  -7  -8   6  574.82   94.42
   7   8  -5  279.57   52.10
   7   8  -5  213.85   28.75
  -7   8   5  271.99   41.61
   7  -8  -5  245.27   41.63
  -7  -8   5  273.62   48.48
   7   8  -4   19.25    9.60
  -7   8   4   -4.29   20.39
  -7  -8   4   22.20    7.11
   7  -8  -4   38.02    8.08
   7   8  -3  494.28   44.43
  -7   8   3  518.87   55.29
  -7  -8   3  547.26   78.18
   7  -8  -3  449.28   58.32
   7   8  -2  113.68   19.23
  -7   8   2   57.61   22.43
  -7  -8   2  116.99   17.72
   7  -8  -2   94.41   18.25
   7   8  -1  105.51   14.03
  -7   8   1  130.62   25.30
  -7  -8   1  118.12   22.80
   7  -8  -1   56.64   18.00
   7   8   0  129.88   23.38
  -7   8   0  180.75   26.37
  -7  -8   0  216.71   31.94
   7  -8   0  157.61   21.43
   7   8   1  441.52   30.00
  -7   8  -1  439.45   62.54
  -7  -8  -1  475.51   57.91
   7  -8   1  480.25   45.89
   7   8   2  759.01   45.34
  -7   8  -2  672.93  100.40
  -7  -8  -2  762.63   83.53
   7  -8   2  747.71  110.20
   7   8   3   98.74   29.76
  -7   8  -3   64.66   20.57
  -7  -8  -3   55.32   19.40
   7  -8   3   31.60   13.56
   7   8   4  380.90   60.80
  -7   8  -4  379.25   53.25
  -7  -8  -4  409.96   49.44
   7  -8   4  371.84   53.16
   7   9  -9   82.84   30.12
   7  -9  -9   38.71   16.25
  -7  -9   9   87.18   33.71
   7   9  -8  514.62   78.43
  -7   9   8  541.01   69.36
  -7  -9   8  584.33   99.68
   7  -9  -8  533.69   34.66
   7   9  -7  146.87   28.37
  -7   9   7  151.38   32.00
  -7  -9   7  103.46   28.80
   7  -9  -7  123.12   26.09
   7   9  -6  439.88   41.80
   7   9  -6  357.42   27.95
  -7   9   6  299.09   53.15
   7  -9  -6  453.27   75.25
  -7  -9   6  365.65   48.94
   7   9  -5   77.37   23.94
   7   9  -5   84.32   16.95
   7  -9  -5   75.84   25.17
  -7  -9   5   64.14   11.90
   7   9  -4 1561.84   60.07
  -7   9   4 1582.27  206.87
  -7  -9   4 1623.56   72.68
   7  -9  -4 1644.01   59.87
   7   9  -3  589.97   34.41
  -7   9   3  664.41   39.50
  -7  -9   3  632.12   89.22
   7  -9  -3  734.26   80.98
   7   9  -2  712.26   80.67
  -7   9   2  669.50   46.06
  -7  -9   2  695.02   91.79
   7  -9  -2  764.89   91.97
   7   9  -1  195.80   28.39
  -7   9   1  185.10   22.65
  -7  -9   1  158.58   21.30
   7  -9  -1  219.11   24.47
   7   9   0  141.73   24.73
  -7   9   0  102.30   28.33
  -7  -9   0  121.25   25.95
   7  -9   0  153.66   29.72
   7   9   1  180.89   35.03
  -7   9  -1  181.42   36.37
   7  -9   1  188.31   34.35
   7   9   2  447.81   40.67
  -7   9  -2  465.00   40.34
  -7  -9  -2  571.93   55.51
   7  -9   2  489.98   63.93
   7   9   3   14.48   12.31
  -7   9  -3   23.04   21.61
  -7  -9  -3   27.16   19.00
   7  -9   3   28.51   15.85
   7   9   4   -4.90   22.87
  -7   9  -4    9.63   22.18
   7  -9   4   37.55   19.96
   7  10  -8   29.50   19.51
  -7  10   8   -0.29   12.97
  -7 -10   8   11.42   14.95
   7 -10  -8   52.41   28.50
   7  10  -7  354.87   31.57
  -7  10   7  316.82   71.23
  -7 -10   7  360.19   49.32
   7 -10  -7  370.20   66.82
   7  10  -6  163.26   37.69
   7  10  -6  130.82   27.43
  -7  10   6  176.01   40.96
   7 -10  -6  145.94   35.57
  -7 -10   6  143.27   34.51
   7  10  -5  487.94   47.40
  -7  10   5  527.51   46.86
  -7 -10   5  422.20   69.82
   7 -10  -5  492.41   74.23
   7  10  -4  578.73   48.69
  -7  10   4  510.43   51.17
  -7 -10   4  553.11   91.92
   7 -10  -4  580.47   67.65
   7  10  -3  316.79   25.03
  -7  10   3  258.06   47.33
  -7 -10   3  258.17   50.38
   7 -10  -3  353.43   37.50
   7  10  -2  120.52   21.61
  -7  10   2  124.68   25.28
  -7 -10   2  114.49   26.52
   7 -10  -2  144.19   23.61
   7  10  -1  349.10   29.18
  -7  10   1  374.48   30.32
  -7 -10   1  310.02   48.12
   7 -10  -1  389.28   47.78
   7  10   0   51.58   22.44
  -7  10   0   59.34   15.46
  -7 -10   0   83.43   17.76
   7 -10   0   71.39   17.80
   7  10   1  330.51   48.83
  -7  10  -1  283.53   34.42
  -7 -10  -1  283.35   40.73
   7 -10   1  335.96   47.30
   7  10   2  227.56   34.26
  -7  10  -2  243.66   43.30
  -7 -10  -2  201.38   32.58
   7 -10   2  166.67   42.70
   7  10   3   55.76   19.94
  -7  10  -3   36.23   14.38
  -7 -10  -3   -5.41   25.89
   7 -10   3  113.88   32.13
  -7  11   7    4.24   12.99
   7 -11  -7   14.99   15.64
  -7 -11   7   44.78   17.98
   7  11  -6  424.05   33.56
  -7  11   6  466.50   42.96
   7 -11  -6  395.96   80.05
   7  11  -5  100.50   30.23
  -7  11   5  148.32   36.29
  -7 -11   5  130.58   27.49
   7 -11  -5  170.83   42.01
   7  11  -4  998.19  130.05
  -7  11   4 1009.34   80.14
  -7 -11   4  999.04  126.35
   7 -11  -4  946.82  131.82
   7  11  -3  446.90   54.78
  -7  11   3  366.27   30.60
  -7 -11   3  384.75   60.88
   7 -11  -3  386.90   33.38
   7  11  -2  203.10   55.52
  -7  11   2  231.99   26.67
  -7 -11   2  196.69   51.80
   7 -11  -2  191.97   50.19
  -7  11   1   -1.10   20.58
  -7 -11   1   41.84   16.64
   7 -11  -1   21.06   14.86
   7  11   0   40.12   17.42
  -7  11   0   39.06   20.48
  -7 -11   0   37.00   23.27
   7 -11   0   16.82   17.12
   7  11   1  222.90   32.53
  -7  11  -1  130.32   28.18
  -7 -11  -1  176.40   30.90
   7 -11   1  237.87   46.60
   7  12  -5  123.91   26.24
  -7  12   5  157.59   39.96
   7 -12  -5  106.66   32.43
   7  12  -4   86.55   18.76
  -7  12   4  116.42   31.55
  -7 -12   4   79.74   17.70
   7 -12  -4   86.84   21.31
   7  12  -3  127.80   33.53
  -7  12   3  111.80   31.32
  -7 -12   3  160.24   35.46
   7 -12  -3  187.53   39.81
   7  12  -2   22.62   10.39
  -7  12   2   62.81   23.31
  -7 -12   2   69.58   12.88
   7 -12  -2    6.24   15.15
   7  12  -1   51.82   15.34
  -7  12   1   68.59   14.48
  -7 -12   1   36.88   18.14
   7 -12  -1   19.86   13.75
  -8   0  12  330.05   40.89
   8   0 -12  364.35   49.47
  -8   0  11  137.42   23.39
   8   0 -11  135.19   29.54
  -8   0  10  221.89   26.55
   8   0 -10  189.46   44.17
  -8   0   9   20.13   13.16
   8   0  -9   23.06    9.62
  -8   0   8  774.36  108.28
   8   0  -8  798.34  103.58
  -8   0   7  767.96   80.12
   8   0  -7  764.82   48.87
  -8   0   7  673.21   75.02
   8   0  -6 6840.32  216.10
   8   0  -6 7185.46  225.54
  -8   0   6 7219.14  223.72
   8   0  -5   91.58   12.92
   8   0  -5  102.68   15.26
  -8   0   5  126.91   18.71
   8   0  -4 1051.05   80.35
   8   0  -4 1097.78   44.49
  -8   0   4 1047.51  113.34
   8   0  -3  593.37   71.06
   8   0  -3  682.45   72.78
  -8   0   3  697.66   88.79
   8   0  -2 1009.16   80.14
   8   0  -2  869.10   27.73
  -8   0   2 1059.26  111.42
   8   0  -1 1323.27  109.65
   8   0  -1 1185.71   40.31
  -8   0   1 1237.59   51.60
   8   0   0  195.15   20.15
   8   0   0  140.35   24.35
  -8   0   0  195.35   21.20
   8   0   1   20.12   16.70
  -8   0  -1   42.25   17.10
   8   0   2 1814.74   86.70
  -8   0  -2 1911.72  122.60
   8   0   3    9.65   12.30
  -8   0  -3   15.80   10.41
   8   0   4   17.42   11.01
  -8   0  -4   15.84   21.90
   8   0   5  987.36  124.47
  -8   0  -5  881.31   84.03
   8   0   6   54.87   14.95
  -8   0  -6   35.83   16.17
  -8   1  12   52.06   22.32
   8   1 -12   43.93   16.73
  -8  -1  12   79.08   38.56
   8  -1 -12   55.68   27.22
  -8   1  11  453.58   61.38
   8   1 -11  505.41   58.60
  -8  -1  11  491.40   64.77
   8  -1 -11  465.76   49.59
  -8   1  10   19.79   13.32
   8   1 -10  -21.49   18.62
  -8  -1  10   66.90   20.98
   8  -1 -10   -2.40   10.29
  -8   1   9 1735.40   73.15
   8   1  -9 1608.45  146.98
  -8  -1   9 1586.71  176.94
   8  -1  -9 1705.67  108.02
  -8   1   8   53.95   12.01
  -8   1   8   93.80   19.95
   8   1  -8   71.54   14.88
  -8  -1   8   30.82    6.38
   8  -1  -8   99.04   19.20
  -8   1   7 1187.83   44.76
  -8   1   7 1221.06  103.99
   8   1  -7 1237.00   57.82
   8  -1  -7 1161.54   47.83
  -8  -1   7 1001.01  116.13
  -8  -1   7 1318.60  125.29
  -8   1   6 3719.03  143.44
   8   1  -6 3772.14  127.03
   8   1  -6 3669.29  140.56
  -8   1   6 3793.96  124.59
   8  -1  -6 3603.70  120.50
  -8  -1   6 3897.03  126.38
   8   1  -5  691.59   54.63
   8   1  -5  661.15   67.67
  -8   1   5  622.46   85.80
   8  -1  -5  725.46   35.68
  -8  -1   5  665.09   72.62
   8  -1  -5  676.35   58.37
  -8   1   4  383.83   54.00
   8   1  -4  446.71   36.77
   8   1  -4  414.66   59.21
   8  -1  -4  409.11   50.07
  -8  -1   4  386.45   22.56
   8  -1  -4  410.21   37.79
  -8   1   3 1719.78   64.04
   8   1  -3 1664.98   59.13
   8   1  -3 1554.67   59.85
   8  -1  -3 1623.45   54.80
  -8  -1   3 1595.93   57.13
   8  -1  -3 1571.68  128.37
  -8   1   2  792.11   89.33
   8   1  -2  790.77   69.35
   8   1  -2  770.99   23.30
   8  -1  -2  722.40   31.19
  -8  -1   2  746.70   78.32
   8  -1  -2  677.79   62.34
   8   1  -1  141.03   15.26
   8   1  -1  127.81   14.05
  -8   1   1  158.36   22.35
   8  -1  -1  178.61   17.95
   8  -1  -1  177.33   22.70
  -8   1   0 1367.67  150.09
   8   1   0 1311.74   54.73
   8  -1   0 1236.55  138.54
  -8  -1   0 1189.85  134.22
   8  -1   0 1179.34   46.32
  -8   1  -1 1419.60  143.55
   8   1   1 1349.34   52.56
   8  -1   1 1216.64  137.40
  -8  -1  -1 1274.61   56.55
   8  -1   1 1238.15   43.29
   8   1   2  582.59   95.13
  -8   1  -2  632.66   62.08
   8  -1   2  555.13   70.15
  -8  -1  -2  677.51   71.31
   8  -1   2  474.35   59.33
   8   1   3   29.25   18.88
  -8   1  -3   -5.84   18.12
  -8  -1  -3   16.59    9.67
   8  -1   3   -4.26   16.90
   8   1   4  363.51   60.48
  -8   1  -4  478.65   59.31
  -8  -1  -4  380.81   59.40
   8  -1   4  345.28   54.56
   8   1   5  -28.34   18.75
  -8   1  -5   -5.83   20.92
  -8  -1  -5   31.75   13.53
   8  -1   5  -17.39   16.89
   8   1   6  109.24   27.37
  -8   1  -6  120.36   25.24
   8  -1   6   92.67   21.74
  -8  -1  -6   83.22   24.12
  -8   2  12  228.26   36.53
   8   2 -12  292.96   49.37
  -8  -2  12  281.22   55.07
   8  -2 -12  290.75   65.23
  -8   2  11   66.65   20.00
   8   2 -11   81.86   20.07
  -8  -2  11   55.44   14.87
   8  -2 -11   86.48   20.50
  -8   2  10 1234.31   99.53
   8   2 -10 1174.61   47.07
  -8  -2  10 1192.18  115.58
   8  -2 -10 1176.45   80.31
  -8   2   9  505.27   35.99
   8   2  -9  504.56   65.34
  -8  -2   9  450.26   61.01
   8  -2  -9  431.26   69.77
  -8   2   8 1762.07   89.91
  -8   2   8 1872.61  100.56
   8   2  -8 1755.37   90.43
  -8  -2   8 2165.14  135.76
   8  -2  -8 1965.06   98.34
  -8   2   7  405.46   43.47
  -8   2   7  408.68   34.01
   8   2  -7  434.46   52.43
   8  -2  -7  491.24   70.11
  -8  -2   7  368.31   61.51
  -8  -2   7  434.13   53.34
  -8   2   6 5720.51  192.25
   8   2  -6 5803.86  185.82
   8   2  -6 5339.52  175.30
  -8   2   6 5496.58  179.40
   8  -2  -6 5559.86  180.06
  -8  -2   6 5623.93  178.47
   8   2  -5  375.86   32.94
   8   2  -5  377.09   58.29
  -8   2   5  318.01   41.37
   8  -2  -5  386.77   60.61
  -8  -2   5  305.55   41.77
   8  -2  -5  310.86   34.98
   8   2  -4  737.19   80.01
   8   2  -4  717.59   60.26
  -8   2   4  766.28  104.83
   8  -2  -4  817.75   42.00
  -8  -2   4  750.24   96.74
   8  -2  -4  732.97   84.35
   8   2  -3  208.90   19.86
   8   2  -3  212.65   36.28
  -8   2   3  236.62   22.38
   8  -2  -3  278.29   39.74
  -8  -2   3  226.89   29.66
   8  -2  -3  232.57   15.92
   8   2  -2  141.00   19.67
   8   2  -2  109.23   13.85
  -8   2   2  185.70   23.85
   8  -2  -2  156.89   25.97
  -8  -2   2  106.04   18.77
   8  -2  -2  178.42   24.41
   8   2  -1 2261.88   83.51
  -8   2   1 2372.56   88.99
   8  -2  -1 2390.35   82.00
  -8  -2   1 2451.43   88.90
   8  -2  -1 2212.69   75.44
  -8   2   0  582.02   49.47
   8   2   0  446.99   28.95
   8  -2   0  456.55   57.39
  -8  -2   0  479.21   73.66
   8  -2   0  482.43   49.99
   8   2   1  439.93   60.01
  -8   2  -1  505.94   61.10
   8  -2   1  398.48   37.80
  -8  -2  -1  505.76   62.71
   8  -2   1  472.00   56.20
  -8   2  -2 1881.38  212.32
   8   2   2 1727.71  193.24
   8  -2   2 1693.40   87.25
  -8  -2  -2 1649.90   83.69
   8  -2   2 1725.58   78.15
   8   2   3   73.87    9.95
  -8   2  -3   89.23   16.49
   8  -2   3   75.54   10.82
  -8  -2  -3  123.74   18.70
   8  -2   3   72.66   10.93
   8   2   4   29.38   17.80
  -8   2  -4   69.33   28.77
  -8  -2  -4   82.52   19.61
   8  -2   4   31.45   16.92
   8   2   5  510.54   66.90
  -8   2  -5  503.43   67.90
  -8  -2  -5  530.35   63.70
   8  -2   5  406.40   68.57
   8   2   6  150.95   34.08
  -8   2  -6  120.83   30.75
   8  -2   6  110.06   28.35
  -8  -2  -6  166.50   40.40
  -8   3  12  149.75   32.63
   8   3 -12  159.19   38.27
  -8  -3  12  134.12   28.29
   8  -3 -12  122.00   40.23
  -8   3  11  244.14   31.50
   8   3 -11  298.47   51.41
  -8  -3  11  255.92   31.10
   8  -3 -11  204.49   50.16
  -8   3  10   27.77   11.00
   8   3 -10   31.37    8.51
  -8  -3  10   17.58   19.78
   8  -3 -10   32.25   16.94
  -8   3   9 1360.70  126.76
   8   3  -9 1447.75  142.86
  -8  -3   9 1421.81  128.52
   8  -3  -9 1428.45   75.36
  -8   3   8  214.70   35.87
  -8   3   8  244.18   22.92
   8   3  -8  285.11   31.21
  -8  -3   8  324.77   39.69
   8  -3  -8  292.65   26.32
  -8   3   7  936.59  108.89
  -8   3   7 1030.92   88.98
   8   3  -7 1006.67   68.53
   8  -3  -7 1105.74  147.50
  -8  -3   7 1015.81   51.35
  -8  -3   7 1072.10  144.66
  -8   3   6  383.11   43.06
   8   3  -6  396.77   36.97
   8   3  -6  388.27   49.81
  -8   3   6  421.02   30.27
   8  -3  -6  442.80   53.15
  -8  -3   6  373.51   39.26
  -8   3   5  659.83   85.65
   8   3  -5  766.20   67.62
   8   3  -5  794.54   47.25
  -8   3   5  783.51   85.54
   8  -3  -5  734.99   31.32
  -8  -3   5  759.41   28.12
   8   3  -4  247.29   29.76
   8   3  -4  264.44   44.96
  -8   3   4  312.83   33.82
   8  -3  -4  269.32   19.19
  -8  -3   4  260.74   38.48
   8  -3  -4  231.65   29.07
   8   3  -3 1092.23  117.77
   8   3  -3  983.31   50.26
  -8   3   3 1050.05  122.96
   8  -3  -3  981.15   29.36
  -8  -3   3  996.88   52.73
   8  -3  -3  978.06   74.05
   8   3  -2 3001.55  104.39
  -8   3   2 3048.51  110.91
   8  -3  -2 3006.42   98.61
  -8  -3   2 3085.64  118.68
   8  -3  -2 2899.50   98.53
   8   3  -1  711.58   30.11
  -8   3   1  737.03   83.40
   8  -3  -1  640.91   89.42
  -8  -3   1  783.36  110.54
   8  -3  -1  822.25   84.00
  -8   3   0  642.81   91.58
   8   3   0  595.94   33.61
   8  -3   0  567.30   24.45
  -8  -3   0  557.66   95.66
   8  -3   0  538.14   54.90
  -8   3  -1  965.89  120.65
   8   3   1  929.15  100.52
   8  -3   1  951.20   99.30
  -8  -3  -1  851.99  128.47
   8  -3   1  999.58   70.10
   8   3   2  860.25  102.68
  -8   3  -2 1016.41  120.60
   8  -3   2  794.48   91.70
  -8  -3  -2  922.19   84.55
   8  -3   2  895.32   71.17
  -8   3  -3    3.43    9.56
   8   3   3   34.88   14.39
   8  -3   3   32.37   13.40
  -8  -3  -3   15.88   10.20
   8  -3   3    3.94   10.26
   8   3   4  354.06   35.65
  -8   3  -4  334.22   27.55
  -8  -3  -4  401.65   56.94
   8  -3   4  385.34   34.45
   8   3   5  624.66   42.50
  -8   3  -5  539.52   71.46
  -8  -3  -5  610.96   81.74
   8  -3   5  641.95   41.54
  -8   4  12  117.55   26.98
   8   4 -12  188.26   40.09
   8  -4 -12  151.77   33.29
  -8   4  11  143.83   31.46
   8   4 -11  177.38   33.51
  -8  -4  11  153.80   34.18
   8  -4 -11  160.25   40.07
  -8   4  10 1132.98   99.01
   8   4 -10 1137.82   47.01
  -8  -4  10 1206.09  126.59
   8  -4 -10 1125.23  130.68
  -8   4   9  296.25   26.72
   8   4  -9  196.03   35.83
  -8  -4   9  152.22   29.94
   8  -4  -9  240.01   34.44
  -8   4   8  438.50   45.09
  -8   4   8  495.43   44.00
   8   4  -8  542.17   72.30
  -8  -4   8  453.79   58.09
   8  -4  -8  458.20   69.39
  -8   4   7  514.44   63.52
   8   4  -7  551.35   40.79
   8   4  -7  565.36   57.68
  -8   4   7  462.36   66.92
   8  -4  -7  571.77  104.66
  -8  -4   7  467.52   48.02
  -8   4   6  351.98   36.87
   8   4  -6  309.21   24.37
   8   4  -6  364.49   47.45
  -8   4   6  361.88   40.02
   8  -4  -6  368.53   38.01
  -8  -4   6  305.76   59.47
  -8   4   5 1065.49   60.07
   8   4  -5  965.17   43.98
   8   4  -5 1165.43   67.15
  -8   4   5 1091.03   46.21
   8  -4  -5 1094.73   49.35
  -8  -4   5 1087.76   43.32
  -8   4   4 1157.92   60.74
   8   4  -4 1301.10  107.71
   8   4  -4 1147.51   68.50
  -8   4   4 1294.88  131.80
   8  -4  -4 1116.96   48.45
  -8  -4   4 1218.23   50.04
   8   4  -3  216.71   22.75
  -8   4   3  235.11   33.12
   8  -4  -3  190.45   19.61
  -8  -4   3  189.73   31.33
   8  -4  -3  203.94   27.23
   8   4  -2 1987.42  186.86
  -8   4   2 1890.02   76.21
   8  -4  -2 2003.16   68.20
  -8  -4   2 1995.05  118.72
   8  -4  -2 1976.80   73.74
   8   4  -1 1190.15   84.95
  -8   4   1 1160.36  107.68
   8  -4  -1  831.90   94.32
  -8  -4   1 1092.86  148.02
   8  -4  -1 1233.54  114.92
  -8   4   0 2406.04  115.40
   8   4   0 2434.07  116.15
   8  -4   0 2391.19  116.40
  -8  -4   0 2691.72  128.82
   8  -4   0 2670.55  179.17
   8   4   1  132.54   24.54
  -8   4  -1  156.93   23.13
   8  -4   1  100.06   12.07
  -8  -4  -1  109.18   16.06
   8  -4   1  115.25   13.42
   8   4   2  589.51   62.48
  -8   4  -2  613.06   78.47
   8  -4   2  488.57   70.90
  -8  -4  -2  639.85   84.31
   8  -4   2  648.97   67.33
  -8   4  -3  384.55   70.60
   8   4   3  397.03   49.03
   8  -4   3  311.82   59.57
  -8  -4  -3  387.24   53.19
   8  -4   3  360.90   57.36
   8   4   4  162.92   35.10
  -8   4  -4  190.65   37.00
   8  -4   4  110.14   21.44
  -8  -4  -4  179.90   36.63
   8  -4   4  196.78   45.04
   8   4   5   22.66   13.24
  -8   4  -5   41.19   24.45
  -8  -4  -5   47.36   16.73
  -8   5  11  300.73   49.27
   8   5 -11  322.78   24.98
  -8  -5  11  325.93   67.07
   8  -5 -11  316.76   51.93
  -8   5  10   24.12   10.82
   8   5 -10   15.28   12.23
  -8  -5  10   15.30   12.04
   8  -5 -10   22.21   12.89
  -8   5   9   56.51   10.89
   8   5  -9  126.01   21.91
  -8  -5   9   59.86   15.75
   8  -5  -9   79.89   18.05
  -8   5   8  621.39   60.55
  -8   5   8  724.99   87.79
   8   5  -8  808.57  120.66
  -8  -5   8  815.29  114.26
   8  -5  -8  716.16  110.35
  -8   5   7  311.61   41.14
   8   5  -7  342.28   26.47
   8   5  -7  350.24   51.29
  -8   5   7  280.54   43.97
   8  -5  -7  350.96   54.62
  -8  -5   7  258.42   47.68
  -8   5   6  346.41   46.33
   8   5  -6  404.13   34.55
   8   5  -6  409.85   56.73
  -8   5   6  440.03   49.52
   8  -5  -6  439.07   61.25
  -8  -5   6  348.88   56.74
  -8   5   5  370.96   47.54
   8   5  -5  359.06   29.13
   8   5  -5  377.69   40.79
  -8   5   5  414.62   59.53
   8  -5  -5  405.72   58.36
  -8  -5   5  371.64   66.81
  -8   5   4   59.04   11.13
   8   5  -4   58.09   17.07
   8   5  -4   79.96   10.80
  -8   5   4   57.30   20.30
   8  -5  -4  108.46   19.01
  -8  -5   4   66.37   10.29
   8   5  -3   94.58   14.74
  -8  -5   3   59.78   11.77
   8   5  -2 5497.28  162.31
  -8   5   2 5811.34  232.95
  -8  -5   2 5598.52  167.94
   8  -5  -2 5592.16  180.79
   8   5  -1  541.89   81.39
  -8   5   1  459.10   51.02
  -8  -5   1  489.93   65.43
   8  -5  -1  464.36   51.20
   8   5   0  769.23   79.23
  -8   5   0  700.92   83.37
  -8  -5   0  633.04   70.04
   8  -5   0  720.51   74.61
   8   5   1  504.70   35.40
  -8   5  -1  488.29   71.53
  -8  -5  -1  527.43   57.21
   8  -5   1  500.61   66.51
   8   5   2   64.23   19.29
  -8   5  -2   78.24   17.83
  -8  -5  -2   74.29   13.73
   8  -5   2   45.12   17.48
   8   5   3  317.42   38.34
  -8   5  -3  295.19   50.90
  -8  -5  -3  263.75   47.93
   8  -5   3  219.47   40.05
   8   5   4  283.95   32.43
  -8   5  -4  362.49   36.37
  -8  -5  -4  314.85   54.01
   8  -5   4  346.35   48.76
   8   5   5  277.10   67.07
  -8   5  -5  341.34   62.47
  -8  -5  -5  378.91   46.17
   8   6 -11   60.69   13.81
   8  -6 -11   63.11   26.57
  -8  -6  11   64.13   15.46
   8   6 -10  838.36  128.19
   8  -6 -10  805.11  115.79
  -8  -6  10  918.71  133.17
   8   6  -9  279.29   26.94
  -8   6   9  194.92   42.75
  -8  -6   9  217.70   34.85
   8  -6  -9  253.42   34.23
   8   6  -8  803.68   72.13
  -8   6   8  773.92   35.31
  -8  -6   8  817.73  129.21
   8  -6  -8  740.83   36.36
   8   6  -7 1086.93  150.37
  -8   6   7 1199.65   50.20
   8   6  -7 1063.94  145.11
   8  -6  -7 1218.91   49.33
   8   6  -6  654.44   33.96
   8   6  -6  623.67   28.34
  -8   6   6  608.70   36.88
   8  -6  -6  502.72   56.10
  -8  -6   6  528.19   81.04
   8   6  -5  356.60   25.30
   8   6  -5  318.65   52.05
  -8   6   5  337.94   35.78
   8  -6  -5  324.91   52.00
  -8  -6   5  305.80   52.46
   8   6  -4  639.74   78.52
  -8   6   4  629.63   45.67
  -8  -6   4  590.98   96.42
   8  -6  -4  493.71   68.70
   8   6  -3  295.56   31.42
  -8   6   3  349.81   39.93
  -8  -6   3  353.12   58.72
   8  -6  -3  322.55   46.50
   8   6  -2 1545.12  115.81
  -8   6   2 1686.48   88.27
  -8  -6   2 1653.38   85.80
   8  -6  -2 1764.74  109.96
   8   6  -1  236.56   29.81
  -8   6   1  260.95   34.92
  -8  -6   1  251.02   30.10
   8  -6  -1  284.85   27.89
   8   6   0 2079.01   57.48
  -8   6   0 2192.68  111.76
  -8  -6   0 2118.74   59.28
   8  -6   0 2244.95  188.45
   8   6   1 1008.63   92.68
  -8   6  -1  987.03  111.39
  -8  -6  -1  987.47   93.15
   8  -6   1 1042.48   88.48
   8   6   2  449.93   54.64
  -8   6  -2  395.71   51.51
  -8  -6  -2  410.76   69.98
   8  -6   2  456.35   46.97
   8   6   3   44.84   16.32
   8  -6   3   57.68   13.69
  -8  -6  -3   70.89   15.44
   8   6   4  104.53   33.51
  -8   6  -4  102.43   34.93
  -8  -6  -4  161.90   39.78
   8  -6   4  127.71   30.99
   8   7 -10   40.86   14.64
   8  -7 -10    4.89   11.97
  -8  -7  10   13.75   12.51
   8   7  -9    7.75   11.23
  -8   7   9    9.71   10.24
  -8  -7   9    9.62   13.08
   8  -7  -9   21.74   20.04
   8   7  -8   44.56   10.71
  -8   7   8   40.32   11.37
  -8  -7   8   32.47   13.56
   8  -7  -8   34.26   13.60
   8   7  -7  240.78   42.08
  -8   7   7  197.67   45.40
   8   7  -7  214.43   34.96
   8  -7  -7  253.24   38.06
   8   7  -6  106.56   19.90
   8   7  -6  150.75   28.39
  -8   7   6  155.77   23.61
   8  -7  -6  180.37   30.58
  -8  -7   6  118.85   17.87
   8   7  -5  233.65   31.83
   8   7  -5  182.51   31.30
  -8   7   5  186.21   32.75
   8  -7  -5  176.65   34.39
  -8  -7   5  194.06   28.02
   8   7  -4   78.94   18.89
  -8   7   4   43.89   13.10
  -8  -7   4   83.18   29.01
   8  -7  -4  103.68   19.95
   8   7  -3   67.59   20.42
  -8   7   3   75.07   21.46
  -8  -7   3   58.70   11.02
   8  -7  -3   66.41   16.20
   8   7  -2  445.39   50.30
  -8   7   2  420.61   60.71
  -8  -7   2  440.48   60.30
   8  -7  -2  441.83   55.04
   8   7  -1  210.95   30.31
  -8   7   1  252.18   47.75
  -8  -7   1  283.62   42.49
   8  -7  -1  264.53   35.34
   8   7   0  772.00   77.37
  -8   7   0  763.20   44.46
  -8  -7   0  799.47   97.70
   8  -7   0  773.02  114.50
   8   7   1  394.64   33.16
  -8   7  -1  462.56   57.05
  -8  -7  -1  418.48   73.08
   8  -7   1  490.90   49.09
   8   7   2  447.81   32.33
  -8   7  -2  418.88   67.60
  -8  -7  -2  474.17   51.67
   8  -7   2  407.57   52.06
   8   7   3   55.52   26.15
  -8   7  -3   57.53   19.64
  -8  -7  -3  111.72   30.09
   8   7   4  264.82   48.20
  -8   7  -4  277.12   58.13
  -8  -7  -4  264.68   38.44
   8  -7   4  218.57   23.24
   8   8  -9  379.12   31.26
  -8   8   9  395.31   34.24
  -8  -8   9  433.12   65.34
   8  -8  -9  376.95   52.84
   8   8  -8  383.60   42.10
  -8   8   8  461.45   31.51
  -8  -8   8  539.46   81.15
   8  -8  -8  477.78   63.79
   8   8  -7    7.41   11.18
   8   8  -7   16.87   11.30
  -8   8   7  -19.19   18.70
   8   8  -6  961.77   46.96
  -8   8   6 1003.81  117.56
   8  -8  -6 1012.54  145.68
  -8  -8   6  860.07  128.97
   8   8  -5  216.27   38.23
  -8   8   5  124.40   30.33
  -8  -8   5  190.36   40.86
   8  -8  -5  156.10   38.43
   8   8  -4   33.02    8.28
  -8   8   4   22.62   10.63
  -8  -8   4   61.24   15.28
   8  -8  -4   35.47    9.50
   8   8  -3   95.61   12.45
  -8   8   3   77.21   24.32
  -8  -8   3   72.92   12.71
   8  -8  -3  142.77   21.72
   8   8  -2  412.33   39.19
  -8   8   2  428.73   35.26
  -8  -8   2  341.18   62.22
   8  -8  -2  453.94   45.34
   8   8  -1  179.13   42.61
  -8   8   1  165.27   37.24
  -8  -8   1  146.95   30.04
   8  -8  -1  203.88   36.80
   8   8   0  390.19   38.38
  -8   8   0  315.24   39.47
  -8  -8   0  452.77   67.97
   8  -8   0  404.99   67.94
   8   8   1  138.74   31.80
  -8   8  -1  215.49   36.74
  -8  -8  -1  161.84   41.78
   8  -8   1  163.90   27.91
   8   8   2  246.14   51.06
  -8   8  -2  222.10   45.34
  -8  -8  -2  253.86   56.07
   8  -8   2  296.63   66.80
   8   8   3  414.31   55.91
  -8   8  -3  375.32   52.19
  -8  -8  -3  375.99   46.68
   8  -8   3  325.34   50.99
  -8   9   9   99.16   26.40
   8   9  -9   43.12   18.74
  -8  -9   9   40.73   20.67
  -8   9   8   49.97   20.44
   8   9  -8   51.98   17.27
  -8  -9   8   50.52   23.38
   8   9  -7  804.55   40.85
  -8   9   7  552.24   80.06
   8  -9  -7  680.39  104.00
   8   9  -6  237.20   28.78
  -8   9   6  181.58   34.58
  -8  -9   6  168.81   37.89
   8  -9  -6  205.59   38.45
   8   9  -5  311.06   27.17
  -8   9   5  271.22   43.16
  -8  -9   5  208.49   40.40
   8  -9  -5  199.32   32.31
   8   9  -4  122.65   20.50
  -8   9   4   75.21   22.72
  -8  -9   4  108.81   20.94
   8   9  -3  141.05   29.80
  -8   9   3  131.46   26.26
  -8  -9   3   98.79   19.05
   8  -9  -3  119.75   20.47
   8   9  -2   27.24   10.77
  -8   9   2   39.73   17.85
  -8  -9   2   50.39   13.61
   8  -9  -2   84.40   18.66
   8   9  -1   72.85   17.60
  -8   9   1   -8.47   20.13
  -8  -9   1   24.64   14.53
   8  -9  -1   55.78   17.30
   8   9   0  140.95   31.70
  -8   9   0  165.64   40.84
  -8  -9   0  147.92   36.06
   8  -9   0  163.95   36.14
   8   9   1  -27.25   21.32
  -8   9  -1  -15.51   24.22
  -8  -9  -1   -6.77   21.22
   8  -9   1   -9.89   20.81
   8   9   2  578.91   71.82
  -8   9  -2  495.73   76.20
  -8  -9  -2  485.30   57.41
   8  -9   2  444.85   56.55
   8  10  -7  173.62   31.16
  -8  10   7  113.17   31.42
   8 -10  -7  204.32   37.71
   8  10  -6  293.48   64.06
  -8  10   6  283.00   53.94
   8 -10  -6  229.67   71.55
   8  10  -5  495.26   33.29
  -8  10   5  563.40   73.30
  -8 -10   5  484.57   84.35
   8 -10  -5  397.95  134.49
   8  10  -4  449.49   63.74
  -8  10   4  469.30   52.84
  -8 -10   4  483.02   75.93
   8 -10  -4  481.96   57.53
   8  10  -3   24.92   14.83
  -8  10   3   26.63   11.32
  -8 -10   3   35.77   12.55
   8 -10  -3   -3.10   21.88
   8  10  -2  287.77   28.77
  -8  10   2  294.33   36.76
  -8 -10   2  279.42   36.62
   8 -10  -2  271.59   47.21
   8  10  -1   89.88   28.60
  -8  10   1   56.02   17.70
  -8 -10   1   14.24   12.48
   8 -10  -1  105.16   29.65
   8  10   0  423.96   50.92
  -8  10   0  454.41   69.70
  -8 -10   0  398.02   58.55
   8 -10   0  399.16   58.93
   8  10   1  181.36   39.90
  -8  10  -1  166.72   32.24
  -8 -10  -1  230.30   50.49
   8 -10   1  230.91   40.23
   8  11  -5  177.93   38.63
  -8  11   5  140.24   32.90
  -8 -11   5  162.28   39.76
   8 -11  -5  194.46   49.58
   8  11  -4   17.93   11.95
  -8  11   4   29.18   23.10
  -8 -11   4   43.90   23.46
   8 -11  -4  -11.02   25.32
   8  11  -3    9.68   21.35
  -8  11   3   74.62   30.81
  -8 -11   3   39.55   21.62
   8 -11  -3   59.68   26.85
   8  11  -2   14.39   12.91
  -8  11   2   -0.98   23.66
  -8 -11   2   44.12    8.97
   8 -11  -2   20.99   11.28
   8  11  -1  120.89   23.84
  -8  11   1  139.68   35.91
  -8 -11   1  129.78   30.47
   8 -11  -1  141.28   28.80
  -9   0  12   32.67   11.75
   9   0 -12   49.51   15.22
  -9   0  11  626.27   77.96
   9   0 -11  620.73   84.12
  -9   0  10  313.10   40.55
   9   0 -10  268.03   61.20
  -9   0   9  268.38   32.43
   9   0  -9  279.77   34.33
  -9   0   8  578.96   54.34
   9   0  -8  700.69   80.51
  -9   0   7 3451.74  323.87
   9   0  -7 3337.52  150.87
  -9   0   7 3556.75  331.39
   9   0  -6 1211.27  113.78
   9   0  -6 1205.20   62.01
  -9   0   6 1224.54   65.22
   9   0  -5  788.38   73.19
   9   0  -5  673.99   40.88
  -9   0   5  769.28   82.14
   9   0  -4  944.74   43.44
   9   0  -4  974.48   39.41
  -9   0   4  980.56  139.82
   9   0  -3  863.38   98.04
   9   0  -3 1000.90   58.02
  -9   0   3  981.37  111.63
   9   0  -2  727.37   83.88
   9   0  -2  649.92   42.12
  -9   0   2  713.29   88.83
   9   0  -1   65.53   19.86
   9   0  -1   67.96   11.23
  -9   0   1   15.50   20.97
   9   0   0 1166.79   61.08
  -9   0   0 1055.30  132.66
   9   0   1 2213.84   52.07
  -9   0  -1 2183.01   62.40
   9   0   2  107.00   21.24
  -9   0  -2   97.13   17.32
   9   0   3   25.95    8.87
  -9   0  -3   26.56    8.36
   9   0   4  361.72   58.48
  -9   0  -4  453.76   37.02
  -9   1  12   37.94   16.14
   9   1 -12   66.64   24.32
   9  -1 -12   62.40   23.36
  -9  -1  12  142.42   36.62
  -9   1  11  271.71   51.05
   9   1 -11  264.88   54.14
  -9  -1  11  338.12   49.83
   9  -1 -11  245.95   50.45
  -9   1  10  440.81   63.36
   9   1 -10  408.48   29.89
  -9  -1  10  517.12   69.49
   9  -1 -10  507.90   73.05
  -9   1   9  103.52   17.99
   9   1  -9  147.94   29.09
   9  -1  -9  114.74   19.97
  -9  -1   9  136.71   29.24
  -9   1   8 1245.51   35.18
  -9   1   8 1244.55  126.66
   9   1  -8 1338.53  166.70
  -9  -1   8 1355.37  129.41
   9  -1  -8 1355.06  154.55
  -9   1   7  677.03   87.31
   9   1  -7  722.88   66.18
  -9   1   7  660.70   72.42
   9  -1  -7  753.00   79.25
  -9  -1   7  619.47   69.25
  -9  -1   7  778.29  115.34
  -9   1   6 2798.57  128.58
   9   1  -6 2753.81  127.51
   9   1  -6 3110.75  190.53
  -9   1   6 2950.43  138.27
   9  -1  -6 2827.53  129.50
  -9  -1   6 2880.84  135.15
   9   1  -5 2203.18  187.94
   9   1  -5 2128.71   69.65
  -9   1   5 2089.41   81.14
   9  -1  -5 2129.13   81.11
  -9  -1   5 2202.07   74.47
   9  -1  -5 1920.36  152.31
  -9   1   4 1256.30   53.57
   9   1  -4 1264.39  104.62
   9   1  -4 1217.02   50.56
   9  -1  -4 1327.05   49.49
  -9  -1   4 1324.73   52.25
   9  -1  -4 1321.85  109.32
  -9   1   3 1111.03  113.90
   9   1  -3 1158.70   47.16
   9   1  -3 1187.17   77.24
   9  -1  -3 1169.87   60.99
  -9  -1   3 1126.23   50.68
   9  -1  -3 1121.55   99.44
  -9   1   2  457.08   77.63
   9   1  -2  441.65   43.70
   9   1  -2  335.47   40.52
   9  -1  -2  398.52   64.30
  -9  -1   2  427.26   56.35
   9  -1  -2  392.66   38.02
  -9   1   1  515.52   35.39
   9   1  -1  514.29   47.75
   9  -1  -1  586.81   37.84
  -9  -1   1  509.81   36.38
   9  -1  -1  386.24   51.10
  -9   1   0 1486.18   80.38
   9   1   0 1367.41  130.69
   9  -1   0 1472.84   72.11
  -9  -1   0 1456.29  175.01
   9  -1   0 1256.76   82.03
   9   1   1  404.61   30.62
  -9   1  -1  402.87   37.00
  -9  -1  -1  402.61   59.77
   9  -1   1  412.01   32.66
   9   1   2   43.55   20.28
  -9   1  -2   43.70   22.60
  -9  -1  -2   68.84   26.26
   9  -1   2   45.65   13.84
   9   1   3  296.98   40.63
  -9   1  -3  329.14   34.57
   9  -1   3  298.21   57.62
  -9  -1  -3  294.75   45.65
   9   1   4  166.95   44.16
  -9   1  -4  169.25   32.21
  -9  -1  -4  219.41   45.71
   9  -1   4  138.14   34.05
  -9   2  12  106.67   40.19
  -9  -2  12  163.48   41.29
  -9   2  11 1051.80  116.47
   9   2 -11 1152.41  137.13
  -9  -2  11 1252.46   83.14
   9  -2 -11 1365.48  385.24
  -9   2  10  373.97   37.90
   9   2 -10  361.23   60.76
  -9  -2  10  347.82   40.28
   9  -2 -10  334.43   40.27
  -9   2   9  250.49   24.35
   9   2  -9  196.37   39.75
  -9  -2   9  203.04   36.28
   9  -2  -9  185.37   28.26
  -9   2   8   94.50   18.56
  -9   2   8  159.11   21.37
   9   2  -8  134.45   28.06
  -9  -2   8  186.38   27.95
   9  -2  -8  158.95   27.34
  -9   2   7  978.43   50.13
   9   2  -7  988.92   82.58
   9   2  -7  992.06  106.58
  -9   2   7  855.64  107.62
   9  -2  -7 1025.55  123.53
  -9  -2   7  804.76  106.19
  -9   2   6  898.89   87.18
   9   2  -6  947.75   87.21
   9   2  -6 1031.27   76.24
  -9   2   6  847.94  117.16
   9  -2  -6  983.06   97.79
  -9  -2   6  795.68   95.43
   9   2  -5  714.92   92.74
   9   2  -5  696.44   54.36
  -9   2   5  695.86   69.98
   9  -2  -5  768.28  105.41
  -9  -2   5  729.75   41.93
   9  -2  -5  670.68   93.33
   9   2  -4  936.95   53.95
   9   2  -4  839.00   55.21
  -9   2   4  874.53  114.66
   9  -2  -4  805.65   37.42
  -9  -2   4  855.66   99.73
   9  -2  -4  810.92   72.81
  -9   2   3 1124.28  147.95
   9   2  -3 1149.31  118.49
   9   2  -3 1115.47   39.21
   9  -2  -3 1076.90   56.99
  -9  -2   3 1180.22  119.35
   9  -2  -3 1095.79  119.71
   9   2  -2  586.81   60.71
  -9   2   2  601.34   75.19
   9  -2  -2  523.18   54.89
  -9  -2   2  594.75   60.39
   9  -2  -2  591.32   41.10
  -9   2   1   78.56   11.89
   9  -2  -1   36.58   10.24
  -9  -2   1   66.58   20.53
   9  -2  -1   41.98    6.37
  -9   2   0 1638.49  197.61
   9   2   0 1551.78  155.15
   9  -2   0 1252.01  127.63
  -9  -2   0 1502.24  177.38
   9  -2   0 1421.28  106.54
  -9   2  -1 1177.52   80.29
   9   2   1 1095.90   48.46
   9  -2   1  900.75  101.94
  -9  -2  -1 1088.46  122.42
   9  -2   1  956.56   48.24
   9   2   2 1035.66   62.76
  -9   2  -2 1024.30   59.49
  -9  -2  -2  991.23  116.35
   9  -2   2 1004.39   38.92
   9   2   3  213.58   35.81
  -9   2  -3  208.43   38.38
  -9  -2  -3  267.04   57.95
   9  -2   3  173.16   32.39
   9   2   4  499.44   38.63
  -9   2  -4  479.11   67.45
   9  -2   4  350.92   59.41
  -9  -2  -4  439.45   50.73
  -9   3  11  602.30   97.95
   9   3 -11  689.75  101.79
  -9  -3  11  721.54   85.86
   9  -3 -11  621.61  115.36
  -9   3  10  516.07   40.75
   9   3 -10  551.05   80.71
  -9  -3  10  587.77   65.05
   9  -3 -10  520.37   61.91
   9   3  -9    9.43    8.69
   9  -3  -9   18.13    8.51
  -9  -3   9   34.24   11.50
  -9   3   8  428.54   59.83
  -9   3   8  513.94   56.92
   9   3  -8  427.26   76.41
  -9  -3   8  431.40   53.47
   9  -3  -8  477.57   34.79
  -9   3   7 1024.68  104.43
   9   3  -7 1111.36   43.46
   9   3  -7 1097.35   91.49
  -9   3   7  926.05   95.32
   9  -3  -7 1072.98   43.57
  -9  -3   7  969.90  104.58
  -9   3   6  356.46   45.20
   9   3  -6  358.64   26.65
   9   3  -6  339.28   54.94
  -9   3   6  345.44   31.25
   9  -3  -6  419.83   71.11
  -9  -3   6  373.98   45.31
  -9   3   5  267.33   40.99
   9   3  -5  396.54   56.25
   9   3  -5  327.96   44.33
  -9   3   5  318.56   33.80
   9  -3  -5  302.13   26.97
  -9  -3   5  327.26   45.93
   9   3  -4  584.11   56.44
   9   3  -4  464.86   48.64
  -9   3   4  565.42   63.28
   9  -3  -4  595.97   44.16
  -9  -3   4  535.61  100.11
   9  -3  -4  506.18   50.47
   9   3  -3 2142.61  103.58
  -9   3   3 2124.30  186.61
   9  -3  -3 1898.95  156.97
  -9  -3   3 2016.43   97.29
   9  -3  -3 2094.78   98.35
   9   3  -2  175.91   29.57
  -9   3   2  159.09   22.71
   9  -3  -2  152.25   24.22
  -9  -3   2  148.77   23.93
   9  -3  -2  161.58   26.42
  -9   3   1  217.54   26.17
   9   3  -1  165.81   17.84
   9  -3  -1  155.42   19.68
  -9  -3   1  162.34   26.01
   9  -3  -1  116.62   13.74
  -9   3   0  283.63   41.25
   9   3   0  238.64   32.04
   9  -3   0  180.92   31.48
  -9  -3   0  247.00   49.63
   9  -3   0  230.76   33.14
  -9   3  -1  172.23   41.14
   9   3   1  260.54   43.99
   9  -3   1  223.22   33.30
  -9  -3  -1  275.35   40.27
   9  -3   1  214.88   24.99
   9   3   2   45.57   15.78
  -9   3  -2   -2.24   11.92
   9  -3   2   41.02   11.74
   9  -3   2   40.27   12.56
   9   3   3  429.61   70.98
  -9   3  -3  436.31   80.57
  -9  -3  -3  437.65   70.92
   9  -3   3  407.60   46.21
   9   3   4  126.87   31.39
  -9   3  -4  150.17   24.73
   9  -3   4  114.24   28.13
  -9  -3  -4  162.95   26.47
  -9   4  11  396.40   58.83
   9   4 -11  519.60   37.89
  -9  -4  11  428.44   63.43
   9  -4 -11  400.51   75.27
  -9   4  10  352.63   34.35
   9   4 -10  356.86   59.87
  -9  -4  10  347.76   50.76
   9  -4 -10  410.30   55.62
  -9   4   9  264.06   46.97
   9   4  -9  296.84   32.85
  -9  -4   9  274.15   36.34
   9  -4  -9  286.90   28.65
  -9   4   8   39.03   18.15
  -9   4   8   45.83   13.06
   9   4  -8   33.13   11.28
  -9  -4   8   60.33   25.36
   9  -4  -8   68.19   22.78
  -9   4   7  202.05   30.53
   9   4  -7  266.84   49.45
   9   4  -7  198.34   26.64
  -9   4   7  180.10   32.35
   9  -4  -7  224.03   37.39
  -9  -4   7  166.19   33.90
  -9   4   6  287.01   42.59
   9   4  -6  302.43   42.21
   9   4  -6  335.91   55.90
  -9   4   6  359.15   30.05
   9  -4  -6  401.35   62.48
  -9  -4   6  297.43   46.69
  -9   4   5  109.98   15.26
   9   4  -5  114.80   12.41
   9   4  -5   98.11   13.01
   9  -4  -5   86.57   16.27
  -9  -4   5  100.37   14.15
   9   4  -4  314.58   44.64
  -9   4   4  365.91   34.35
   9  -4  -4  238.99   37.36
  -9  -4   4  273.89   48.99
   9  -4  -4  308.15   42.32
   9   4  -3  659.63   87.30
  -9   4   3  778.20   48.96
   9  -4  -3  529.16   80.58
  -9  -4   3  549.72  100.43
   9  -4  -3  560.35   93.21
   9   4  -2  467.48   48.57
  -9   4   2  436.08   52.00
   9  -4  -2  305.75   42.85
  -9  -4   2  391.37   58.58
   9  -4  -2  484.93   49.27
   9   4  -1  115.17   26.42
  -9   4   1   49.08   21.67
   9  -4  -1   62.95   14.56
   9  -4  -1   62.00    9.22
   9   4   0  918.19   46.89
  -9   4   0  811.71   49.28
   9  -4   0  799.55   31.53
  -9  -4   0  880.24  102.09
   9  -4   0  846.29   91.19
   9   4   1  360.50   34.53
  -9   4  -1  316.16   38.95
  -9  -4  -1  416.74   56.09
   9  -4   1  313.30   26.63
   9   4   2  764.82  114.79
  -9   4  -2  666.57   72.45
  -9  -4  -2  707.82  121.65
   9  -4   2  635.52   63.34
   9   4   3   37.84   16.67
  -9  -4  -3   38.40   16.99
   9   4   4  347.60   64.98
  -9   4  -4  427.18   57.76
  -9  -4  -4  484.99   72.96
   9   5 -11  200.54   33.12
   9  -5 -11  136.38   32.66
  -9  -5  11  143.82   42.24
   9   5 -10  703.61  103.82
   9  -5 -10  737.07  119.21
  -9  -5  10  780.25  118.26
  -9   5   9  226.84   28.30
   9   5  -9  224.95   33.48
  -9  -5   9  241.40   29.09
   9  -5  -9  216.21   37.23
  -9   5   8  267.33   45.77
  -9   5   8  141.60   26.39
   9   5  -8  133.31   22.82
  -9  -5   8  173.36   32.13
   9  -5  -8  127.15   33.85
   9   5  -7   -3.63   18.80
   9   5  -7   23.02    8.01
  -9   5   7   20.62    9.86
   9  -5  -7   30.07   14.52
  -9  -5   7   15.85    5.87
   9   5  -6  146.88   24.33
   9   5  -6  142.17   23.48
  -9   5   6  121.52   19.86
   9  -5  -6  141.40   20.25
  -9  -5   6   89.32   17.19
   9   5  -5  957.21  106.15
  -9   5   5  994.36   46.58
  -9  -5   5  849.47  126.87
   9  -5  -5  944.25   37.24
   9   5  -4  518.38   62.64
  -9   5   4  570.88   67.90
  -9  -5   4  547.95   80.66
   9  -5  -4  496.32   79.73
   9   5  -3 1352.07  105.72
  -9   5   3 1503.57  143.82
  -9  -5   3 1286.80  156.64
   9  -5  -3 1425.20   43.38
   9   5  -2  142.94   22.82
  -9   5   2  160.98   28.79
  -9  -5   2   98.80   20.09
   9  -5  -2  107.37   18.93
   9   5  -1  719.44   38.39
  -9   5   1  710.44  108.51
  -9  -5   1  759.08   99.18
   9  -5  -1  769.84   81.22
   9   5   0   56.35   21.04
  -9   5   0   57.34   16.99
  -9  -5   0   63.64   17.82
   9  -5   0   39.98    9.83
   9   5   1  356.18   47.41
  -9   5  -1  333.86   34.57
  -9  -5  -1  338.59   40.02
   9  -5   1  369.15   36.58
   9   5   2  118.25   29.34
  -9   5  -2   43.21   26.60
  -9  -5  -2   98.46   24.04
   9  -5   2   90.85   20.95
   9   5   3  484.82   50.83
  -9   5  -3  473.50   73.56
  -9  -5  -3  568.95   71.81
   9   6 -10  408.42   45.49
   9  -6 -10  480.90   69.36
  -9  -6  10  513.98   65.23
   9   6  -9   96.96   27.76
   9  -6  -9  156.45   40.07
  -9  -6   9  161.00   37.07
   9   6  -8   19.90   18.74
  -9   6   8   -3.83   16.77
  -9  -6   8  -10.67   20.94
   9  -6  -8   18.40   22.31
   9   6  -7   39.90    9.83
   9   6  -7   71.30   16.60
  -9   6   7   95.58   18.60
   9   6  -6  313.76   27.34
   9   6  -6  266.91   33.80
  -9   6   6  344.05   29.55
   9  -6  -6  326.33   57.08
  -9  -6   6  279.84   33.95
   9   6  -5  196.61   24.88
  -9   6   5  156.29   22.30
  -9  -6   5  176.95   24.36
   9  -6  -5  196.14   34.13
   9   6  -4  335.12   38.85
  -9   6   4  357.48   36.22
  -9  -6   4  286.58   38.83
   9  -6  -4  287.89   46.83
   9   6  -3  252.45   42.91
  -9   6   3  329.82   39.54
  -9  -6   3  300.12   47.09
   9  -6  -3  237.48   28.20
   9   6  -2  477.96   33.02
  -9   6   2  502.49   51.10
  -9  -6   2  461.53   69.77
   9  -6  -2  475.82   71.31
   9   6  -1  436.70   30.08
  -9   6   1  401.66   53.96
  -9  -6   1  433.36   61.36
   9  -6  -1  444.32   41.61
   9   6   0 1073.30   57.72
  -9   6   0 1076.35   62.08
  -9  -6   0  983.84  140.13
   9  -6   0 1079.97  101.48
   9   6   1  184.02   36.15
  -9   6  -1  126.15   28.67
  -9  -6  -1  173.62   32.47
   9  -6   1  172.69   29.22
   9   6   2  839.17   41.87
  -9   6  -2  863.72  113.19
  -9  -6  -2  884.65   88.11
   9  -6   2  768.56   96.26
   9   6   3  116.28   30.40
  -9   6  -3   92.94   32.65
  -9  -6  -3  135.60   32.88
   9  -6   3  102.77   23.49
   9   7  -9  159.83   25.74
   9  -7  -9  237.10   51.93
  -9  -7   9  232.57   43.13
   9   7  -8  888.68   99.36
  -9   7   8  996.44  107.51
  -9  -7   8 1159.77  149.06
   9  -7  -8  912.63  140.77
   9   7  -7   71.70   18.77
  -9   7   7   79.43   23.52
   9   7  -7   72.80   16.07
   9  -7  -7   70.15   27.97
   9   7  -6  103.11   18.14
  -9   7   6   79.83   23.00
  -9  -7   6  144.82   23.92
   9  -7  -6  122.03   24.77
   9   7  -5  115.21   22.44
  -9   7   5  164.95   29.85
  -9  -7   5  173.04   37.22
   9  -7  -5  177.59   40.75
   9   7  -4  278.36   41.90
  -9   7   4  296.37   37.66
  -9  -7   4  200.37   39.91
   9  -7  -4  222.00   40.21
   9   7  -3   70.05   21.02
  -9   7   3   76.48   31.22
  -9  -7   3   88.17   17.95
   9  -7  -3  105.43   21.53
   9   7  -2  102.75   19.19
  -9   7   2  129.88   31.11
  -9  -7   2   93.42   18.11
   9  -7  -2  122.28   27.65
   9   7  -1  159.90   26.14
  -9   7   1  122.84   30.26
  -9  -7   1  224.80   44.73
   9  -7  -1  184.14   32.18
   9   7   0  222.52   32.46
  -9   7   0  218.49   45.07
  -9  -7   0  210.18   35.15
   9  -7   0  213.20   25.39
   9   7   1   24.26   22.44
  -9   7  -1   31.10   14.47
  -9  -7  -1   50.57   17.05
   9  -7   1   41.58   20.37
   9   7   2   21.84   24.53
  -9   7  -2   14.10   18.38
  -9  -7  -2    8.83   12.43
   9  -7   2    9.10   21.10
  -9  -8   9  176.67   47.50
  -9   8   8  505.54   71.84
   9  -8  -8  545.65   89.67
  -9  -8   8  543.46   75.50
   9   8  -7  123.36   37.38
  -9   8   7   79.03   22.65
   9  -8  -7  132.33   31.38
   9   8  -6  192.15   52.35
  -9   8   6  145.65   36.29
  -9  -8   6  130.55   30.56
   9  -8  -6  221.25   35.01
   9   8  -5   -8.62   20.39
  -9   8   5   -4.48   19.46
  -9  -8   5   33.51   12.83
   9  -8  -5   -5.74   19.18
   9   8  -4   86.38   22.20
  -9   8   4   52.67   24.84
  -9  -8   4   44.54   15.06
   9  -8  -4   24.10   10.61
   9   8  -3  106.88   20.89
  -9   8   3  129.00   34.04
  -9  -8   3  116.72   22.16
   9  -8  -3  169.25   34.44
   9   8  -2  654.00   50.98
  -9   8   2  650.24   81.39
  -9  -8   2  733.40   89.25
   9  -8  -2  716.50  103.27
   9   8  -1  215.01   60.02
  -9   8   1  199.12   61.50
  -9  -8   1  234.01   38.04
   9  -8  -1  231.42   44.32
   9   8   0  294.37   61.34
  -9   8   0  273.55   59.11
  -9  -8   0  239.51   48.73
   9  -8   0  199.71   39.28
   9   8   1  163.15   26.84
  -9   8  -1  155.51   32.73
  -9  -8  -1  118.01   27.73
   9  -8   1  123.40   24.98
   9   9  -7  370.83   42.81
  -9   9   7  328.68   40.41
   9  -9  -7  346.94   63.47
   9   9  -6  592.98   40.75
  -9   9   6  466.48   77.84
   9  -9  -6  463.25   85.74
   9   9  -5  351.23   38.02
  -9   9   5  374.66   38.83
  -9  -9   5  220.80   57.94
   9  -9  -5  304.46   71.24
   9   9  -4   51.77   20.57
  -9   9   4   27.73   15.80
  -9  -9   4   32.71   18.58
   9  -9  -4    9.05   14.21
   9   9  -3  248.62   52.60
  -9   9   3  223.64   48.68
  -9  -9   3  277.17   60.14
   9  -9  -3  262.54   54.61
   9   9  -2   19.73   17.35
  -9   9   2  -25.69   22.10
  -9  -9   2   34.63   16.66
   9  -9  -2   -3.35   13.59
   9   9  -1   23.29   13.05
  -9   9   1   22.56   25.92
  -9  -9   1   19.95   10.99
   9  -9  -1   34.11   19.41
   9   9   0  418.42   38.64
  -9   9   0  415.26   52.12
  -9  -9   0  357.18   45.81
   9  -9   0  344.94   45.83
   9  10  -5  123.51   32.48
  -9  10   5   81.56   15.99
   9 -10  -5  109.83   24.63
   9  10  -4  110.79   29.29
  -9  10   4   97.03   30.85
  -9 -10   4  107.63   29.57
   9 -10  -4  120.97   28.03
   9  10  -3   78.99   14.58
  -9  10   3   87.44   32.30
  -9 -10   3   82.77   27.05
   9 -10  -3   86.26   26.43
   9  10  -2  273.27   35.29
  -9  10   2  266.91   41.01
  -9 -10   2  320.76   40.17
   9 -10  -2  314.56   49.58
 -10   0  11  332.48   51.69
  10   0 -11  223.54   25.38
 -10   0  10   21.32    8.28
  10   0 -10   -7.73   19.51
 -10   0   9  331.27   38.21
  10   0  -9  375.97   45.47
 -10   0   8 1572.35  153.14
  10   0  -8 1737.23   75.84
 -10   0   7 1506.93  181.91
  10   0  -7 1429.89   95.99
 -10   0   7 1357.36   86.04
  10   0  -6  319.95   40.36
  10   0  -6  310.21   53.71
 -10   0   6  328.08   63.30
  10   0  -5  179.90   28.71
  10   0  -5  151.73   30.17
 -10   0   5  112.88   20.93
  10   0  -4   46.84   20.66
  10   0  -4   40.74   15.42
 -10   0   4   14.36   12.65
  10   0  -3 2639.62   58.63
  10   0  -3 2586.62   49.25
 -10   0   3 2701.16  176.36
  10   0  -2  244.58   38.40
 -10   0   2  236.86   39.57
  10   0  -1  588.27   73.44
 -10   0   1  552.39  125.54
  10   0   0   29.30   13.54
 -10   0   0   17.44   13.84
  10   0   1   35.73   15.66
 -10   0  -1   47.38   17.99
  10   0   2  485.55   32.05
 -10   0  -2  467.58   67.01
  10   0   3  214.45   29.90
 -10   0  -3  211.65   52.56
 -10   1  11  121.64   30.51
  10   1 -11  110.71   23.11
 -10  -1  11  111.93   25.77
  10  -1 -11  116.10   26.09
 -10   1  10  467.78   54.60
  10   1 -10  534.67   72.77
 -10  -1  10  442.15   54.18
  10  -1 -10  493.87   69.57
 -10   1   9   15.47   20.66
  10   1  -9   -2.05   17.17
 -10  -1   9   20.37    8.55
  10  -1  -9   11.27    9.37
 -10   1   8  195.69   34.92
 -10   1   8  270.75   51.39
  10   1  -8  303.87   30.17
 -10  -1   8  317.55   37.82
  10  -1  -8  304.14   29.42
 -10   1   7  223.59   24.34
  10   1  -7  204.44   27.42
  10   1  -7  246.76   40.76
 -10   1   7  225.13   44.96
  10  -1  -7  228.76   45.48
 -10  -1   7  183.54   30.58
 -10   1   6  408.97   56.83
  10   1  -6  491.04   57.80
  10   1  -6  459.59   62.81
  10  -1  -6  566.44   36.38
 -10  -1   6  523.68   58.26
  10  -1  -6  505.96   66.01
  10   1  -5   45.24   13.42
  10   1  -5   10.47    7.97
 -10   1   5   25.89    7.95
  10  -1  -5   -9.29   13.59
 -10  -1   5   33.15   15.30
  10  -1  -5    0.70   14.03
 -10   1   4 2162.69  154.95
  10   1  -4 1972.74  165.62
  10   1  -4 1906.49   79.89
  10  -1  -4 1978.85  107.10
 -10  -1   4 2108.31   52.78
  10  -1  -4 1849.22  155.21
 -10   1   3  233.68   34.60
  10   1  -3  193.62   32.29
  10  -1  -3  155.43   28.00
 -10  -1   3  164.57   35.33
  10  -1  -3  129.77   27.26
  10   1  -2  292.01   44.47
 -10   1   2  357.87   48.06
  10  -1  -2  249.16   31.36
 -10  -1   2  292.72   33.57
  10  -1  -2  268.46   32.09
  10   1  -1  120.26   19.05
 -10   1   1  170.99   25.91
  10  -1  -1  167.14   21.60
 -10  -1   1  144.44   24.74
  10   1   0  156.92   34.30
 -10   1   0  146.47   29.39
  10  -1   0  111.63   19.83
 -10  -1   0   47.39   17.71
  10   1   1  361.67   48.07
 -10   1  -1  305.97   47.46
  10  -1   1  296.57   41.21
 -10  -1  -1  421.63   50.71
  10   1   2  436.76   30.12
 -10   1  -2  511.86   75.78
  10  -1   2  387.42   69.19
 -10  -1  -2  467.59   36.74
  10   1   3  243.48   29.02
 -10   1  -3  242.06   46.45
 -10  -1  -3  312.15   39.07
  10  -1   3  262.23   28.15
 -10   2  11  523.64   75.31
  10   2 -11  479.72  104.08
 -10  -2  11  519.81   66.51
  10  -2 -11  554.35   85.80
 -10   2  10  -12.08   18.21
  10   2 -10   36.53   12.71
 -10  -2  10   43.73   14.90
  10  -2 -10   45.74   14.69
 -10   2   9  479.33   74.63
  10   2  -9  510.90   45.67
 -10  -2   9  557.03   83.98
  10  -2  -9  527.53   67.25
 -10   2   8  482.04   72.80
 -10   2   8  614.91   73.78
  10   2  -8  600.49  110.77
 -10  -2   8  628.19   61.53
  10  -2  -8  604.74   63.97
 -10   2   7  366.94   40.00
  10   2  -7  300.91   24.90
  10   2  -7  314.89   32.49
 -10   2   7  297.39   41.74
  10  -2  -7  325.70   25.82
 -10  -2   7  314.92   37.98
 -10   2   6  654.66   78.48
  10   2  -6  718.39   36.64
  10   2  -6  668.06   94.64
 -10   2   6  791.86   40.88
  10  -2  -6  814.00   86.60
 -10  -2   6  758.01   37.68
  10   2  -5  803.35   35.01
  10   2  -5  737.97   52.31
 -10   2   5  746.40   92.17
  10  -2  -5  770.05   49.95
 -10  -2   5  814.45  101.86
  10  -2  -5  792.66   30.36
  10   2  -4  402.07   37.27
 -10   2   4  435.55   67.19
  10  -2  -4  316.25   45.83
 -10  -2   4  373.39   45.50
  10  -2  -4  373.82   55.87
  10   2  -3  540.62   38.03
 -10   2   3  480.59   56.76
  10  -2  -3  387.47   66.79
 -10  -2   3  453.83   70.46
  10  -2  -3  490.28   25.66
  10   2  -2   49.45   19.64
 -10   2   2   48.65   21.57
  10  -2  -2   45.68   17.32
 -10  -2   2   57.60    9.29
  10  -2  -2   27.39    9.65
 -10   2   1  265.80   50.88
  10   2  -1  263.36   28.39
  10  -2  -1  222.00   28.22
 -10  -2   1  292.09   35.11
  10  -2  -1  175.22   43.92
  10   2   0   33.45   10.97
 -10   2   0   46.63   20.00
  10  -2   0   24.22    9.13
  10   2   1   72.00   24.92
 -10   2  -1   32.40   15.35
  10  -2   1   42.69   17.07
 -10  -2  -1   25.07   12.40
  10   2   2  415.97   62.50
 -10   2  -2  395.32   55.56
 -10  -2  -2  424.89   56.77
  10  -2   2  292.75   65.86
  10   2   3  143.48   30.03
 -10   2  -3  144.66   41.54
 -10  -2  -3  104.87   27.99
  10  -2   3  108.34   26.18
 -10   3  11   60.25   16.03
 -10  -3  11   54.73   15.95
 -10   3  10  821.83  131.46
  10   3 -10  906.48   40.95
 -10  -3  10  864.03  109.38
  10  -3 -10  877.88   98.73
 -10   3   9  119.86   25.66
  10   3  -9  100.86   20.86
 -10  -3   9  144.66   31.78
  10  -3  -9   89.06   17.48
 -10   3   8  503.16   82.11
 -10   3   8  581.50   89.60
  10   3  -8  643.80   95.51
 -10  -3   8  732.89   86.20
  10  -3  -8  569.75   37.77
 -10   3   7  229.94   36.45
  10   3  -7  275.90   36.87
  10   3  -7  277.92   32.33
 -10   3   7  298.96   27.51
  10  -3  -7  338.79   44.62
 -10  -3   7  269.11   24.55
 -10   3   6 1038.47  102.58
  10   3  -6 1146.70  114.68
  10   3  -6  988.69   89.23
 -10   3   6 1216.46  128.24
  10  -3  -6 1233.71   59.65
 -10  -3   6  980.87  125.82
  10   3  -5  143.71   16.46
 -10   3   5  140.11   27.35
  10  -3  -5  125.92   18.75
  10  -3  -5   95.75   12.12
  10   3  -4 1349.81  132.63
 -10   3   4 1384.31  106.93
  10  -3  -4 1253.74   79.20
 -10  -3   4 1412.47   57.20
  10  -3  -4 1407.75   82.82
  10   3  -3  787.15   79.23
 -10   3   3  838.34   79.71
  10  -3  -3  689.32   91.66
 -10  -3   3  833.64   98.33
  10  -3  -3  810.10  100.20
  10   3  -2  860.79   46.42
 -10   3   2  845.50  106.94
  10  -3  -2  765.35   67.45
 -10  -3   2  719.03   82.24
  10  -3  -2  744.86   43.05
 -10   3   1   42.99   13.83
  10   3  -1  -10.48   18.93
  10  -3  -1    5.27    9.34
 -10  -3   1    6.71    8.47
  10  -3  -1   20.19    8.86
  10   3   0 1230.80  139.81
 -10   3   0 1322.90  123.50
  10  -3   0 1312.11   59.34
 -10  -3   0 1325.20  178.94
  10  -3   0 1197.30  114.74
  10   3   1  560.18   55.31
 -10   3  -1  531.53   53.78
 -10  -3  -1  521.23   66.44
  10   3   2  351.98   52.66
 -10   3  -2  314.84   67.84
 -10  -3  -2  264.23   69.06
  10   3   3   68.29   21.26
  10   4 -10  229.93   38.31
  10  -4 -10  340.68   46.81
 -10  -4  10  381.28   49.73
 -10   4   9  159.91   32.99
  10   4  -9  142.19   29.04
 -10  -4   9  245.78   50.71
  10  -4  -9  224.67   43.01
 -10   4   8  170.88   30.16
 -10   4   8  141.22   25.10
  10   4  -8  147.64   28.30
 -10  -4   8  156.28   31.32
  10  -4  -8  140.97   31.53
 -10   4   7  122.05   19.52
  10   4  -7  129.13   19.83
  10   4  -7  106.66   19.48
 -10   4   7   98.20   22.54
  10  -4  -7  133.50   30.13
 -10  -4   7   78.03   14.28
 -10   4   6   50.36   14.84
  10   4  -6  106.70   19.14
 -10   4   6   81.93   19.93
 -10  -4   6   94.21   23.91
  10  -4  -6   57.94   18.58
  10   4  -5  465.87   37.93
 -10   4   5  374.67   46.13
 -10  -4   5  332.03   57.80
  10  -4  -5  470.77   66.96
  10   4  -4  173.55   37.05
 -10   4   4  182.65   28.85
 -10  -4   4  173.66   37.21
  10  -4  -4  163.43   27.86
  10   4  -3  100.13   18.89
 -10   4   3   94.82   25.55
 -10  -4   3   33.44   13.52
  10  -4  -3   70.32   15.70
  10   4  -2  175.83   31.91
 -10   4   2  200.51   34.73
 -10  -4   2  198.81   39.29
  10  -4  -2  161.76   36.08
  10   4  -1  505.19   36.67
 -10   4   1  518.43   69.99
 -10  -4   1  437.52   55.50
  10  -4  -1  480.90   51.97
  10   4   0  692.38   45.67
 -10   4   0  669.44   82.65
 -10  -4   0  692.22   69.16
  10  -4   0  606.44   61.44
  10   4   1  157.61   31.90
 -10   4  -1  144.92   31.38
 -10  -4  -1  160.84   37.48
  10   4   2   15.82   14.91
 -10   4  -2  102.36   26.10
 -10  -4  -2   59.65   22.00
  10   5 -10  222.09   50.31
  10  -5 -10  234.92   44.41
 -10  -5  10  238.90   27.85
  10   5  -9  -22.32   16.10
  10  -5  -9   -4.49   19.18
 -10  -5   9  -29.65   23.06
  10   5  -8  128.92   27.27
 -10   5   8  100.94   27.01
 -10  -5   8   97.32   30.91
  10  -5  -8  117.96   32.47
  10   5  -7   44.89   12.33
 -10   5   7   13.39   13.80
  10  -5  -7   60.66   22.32
  10   5  -6  275.37   30.17
 -10   5   6  283.33   33.71
 -10  -5   6  224.66   49.52
  10  -5  -6  274.07   26.52
  10   5  -5  222.80   36.14
 -10   5   5  309.34   33.52
 -10  -5   5  275.36   37.01
  10  -5  -5  313.83   39.15
  10   5  -4  148.04   30.60
 -10   5   4  118.63   21.80
  10  -5  -4   93.73   20.96
  10   5  -3  312.46   38.53
 -10   5   3  358.15   49.47
 -10  -5   3  268.40   51.52
  10  -5  -3  252.50   52.36
  10   5  -2  448.02   49.66
 -10   5   2  361.44   51.15
 -10  -5   2  453.57   67.22
  10  -5  -2  413.02   54.10
  10   5  -1  115.07   30.30
 -10   5   1  117.26   22.92
 -10  -5   1  142.65   28.24
  10  -5  -1   57.99   14.91
  10   5   0 1390.98  119.49
 -10   5   0 1477.11  381.61
 -10  -5   0 1546.92  363.64
  10  -5   0 1352.14   52.44
  10   5   1  199.19   40.42
 -10   5  -1  255.45   50.84
 -10  -5  -1  202.94   42.25
  10  -5   1  184.83   36.67
  10   5   2  531.50   53.40
 -10   5  -2  493.87   89.58
 -10  -5  -2  497.47  100.98
 -10  -6   9  260.62   43.17
  10  -6  -9  262.81   44.21
 -10   6   8    0.64   19.22
  10  -6  -8    3.35   22.51
 -10  -6   8   42.75   16.29
  10   6  -7  299.25   28.67
 -10   6   7  239.54   38.40
  10  -6  -7  191.14   52.18
  10   6  -6   -9.65   17.33
 -10   6   6   -6.12   19.49
 -10  -6   6   25.94   13.19
  10  -6  -6   55.75   29.14
  10   6  -5  186.97   33.19
 -10   6   5  132.54   30.71
 -10  -6   5  160.59   29.18
  10  -6  -5  155.73   38.65
  10   6  -4  103.45   22.74
 -10   6   4  126.05   38.86
 -10  -6   4   80.55   16.10
  10  -6  -4  166.75   47.05
  10   6  -3  104.36   23.90
 -10   6   3  170.57   35.72
 -10  -6   3  131.51   31.88
  10  -6  -3   70.80   16.59
  10   6  -2  232.92   24.47
 -10   6   2  264.28   35.71
 -10  -6   2  289.45   40.26
  10  -6  -2  285.11   31.36
  10   6  -1  272.34   44.42
 -10   6   1  346.17   41.49
 -10  -6   1  261.13   44.84
  10  -6  -1  227.48   24.76
  10   6   0  308.09   65.53
 -10   6   0  344.00   39.56
 -10  -6   0  207.73   56.07
  10  -6   0  196.52   44.60
  10   6   1  897.43   60.71
 -10   6  -1 1043.61   71.07
 -10  -6  -1  987.05  116.52
  10  -6   1  783.57  128.43
 -10   7   8  346.44   63.68
  10  -7  -8  367.43   64.34
 -10  -7   8  470.44   92.49
  10   7  -7   57.57   21.06
 -10   7   7   54.38   27.55
  10  -7  -7    3.11   21.60
  10   7  -6  285.79   54.13
 -10   7   6  315.51   69.81
 -10  -7   6  247.33   54.58
  10  -7  -6  277.95   69.30
  10   7  -5   27.20   10.54
 -10   7   5   46.44   23.26
 -10  -7   5   11.68   10.48
  10  -7  -5   39.10   12.41
  10   7  -4  494.70   67.02
 -10   7   4  462.79   40.10
 -10  -7   4  402.65   54.47
  10  -7  -4  462.50   91.13
  10   7  -3   83.67   20.56
 -10   7   3   89.42   27.33
 -10  -7   3   94.83   23.97
  10  -7  -3   89.27   18.66
  10   7  -2   57.83   16.80
 -10   7   2   71.70   34.95
 -10  -7   2   64.08   20.32
  10  -7  -2   94.09   30.55
  10   7  -1  246.15   42.54
 -10   7   1  246.31   42.71
 -10  -7   1  223.45   48.58
  10  -7  -1  246.16   43.02
  10   7   0  330.87   36.78
 -10   7   0  329.37   55.37
 -10  -7   0  307.03   64.41
  10  -7   0  276.25   32.93
  10   8  -7  375.25   55.87
 -10   8   7  442.39   43.83
  10  -8  -7  320.32   57.04
  10   8  -6  217.44   39.57
 -10   8   6   68.92   31.05
  10  -8  -6  143.27   28.04
  10   8  -5  221.92   39.53
 -10   8   5  209.93   39.53
 -10  -8   5  239.55   48.75
  10  -8  -5  210.53   47.18
  10   8  -4  483.15   36.87
 -10   8   4  500.97   67.73
 -10  -8   4  516.30   84.14
  10  -8  -4  479.65   79.96
  10   8  -3  143.14   27.88
 -10   8   3  168.76   39.04
 -10  -8   3  135.79   24.58
  10  -8  -3   93.42   31.54
  10   8  -2   97.19   35.24
 -10   8   2   96.24   44.01
 -10  -8   2   87.70   30.77
  10  -8  -2   58.70   21.32
  10   8  -1  460.56   58.87
 -10   8   1  497.14   72.01
 -10  -8   1  446.52   56.46
  10  -8  -1  419.97   79.80
  10   9  -4  198.07   25.24
 -11   0  10  244.87   39.75
  11   0 -10  202.02   29.91
 -11   0   9   58.07   22.20
  11   0  -9  -13.91   17.71
 -11   0   8  193.26   51.06
  11   0  -8  183.64   50.69
 -11   0   7    4.43    9.27
  11   0  -7   25.78    9.74
 -11   0   7   30.36   14.32
  11   0  -6  679.43   40.97
  11   0  -6  675.49   60.72
 -11   0   6  653.32   90.56
  11   0  -5   -4.85   16.84
  11   0  -5   13.52    7.49
 -11   0   5    9.64   12.66
  11   0  -4  397.26   31.31
 -11   0   4  290.73   47.08
  11   0  -3  453.76   33.85
 -11   0   3  397.31   53.28
  11   0  -2  213.90   44.60
 -11   0   2  283.48   52.15
  11   0  -1  521.65   67.59
 -11   0   1  621.88   38.86
  11   0   0  567.97   81.20
 -11   0   0  849.97   53.45
  11   0   1  137.79   33.40
 -11   0  -1   34.80   24.05
 -11   1  10   12.38   10.80
  11   1 -10   10.79    9.18
 -11  -1  10   31.17   14.97
  11  -1 -10   -2.72   19.94
 -11   1   9   60.88   19.30
  11   1  -9   70.81   21.43
 -11  -1   9   55.79   20.80
  11  -1  -9  107.78   31.91
 -11   1   8  292.88   38.00
  11   1  -8  258.78   54.46
  11  -1  -8  270.99   37.76
 -11  -1   8  257.50   39.52
 -11   1   7  310.94   40.55
  11   1  -7  304.67   27.74
  11   1  -7  318.91   45.75
 -11   1   7  367.63   40.09
  11  -1  -7  337.59   59.36
 -11  -1   7  320.43   54.14
 -11   1   6   17.79   11.88
  11   1  -6   53.29   12.59
  11   1  -6   11.03   14.28
  11  -1  -6   27.02    8.25
 -11  -1   6   24.66    9.39
  11  -1  -6   15.01   15.92
  11   1  -5 1199.06  141.78
 -11   1   5 1313.75  112.28
  11  -1  -5 1270.23  123.79
 -11  -1   5 1210.03  144.04
  11  -1  -5 1296.10   93.47
 -11   1   4  707.53  108.00
  11   1  -4  646.37   81.73
  11  -1  -4  596.64   81.46
 -11  -1   4  826.94   49.19
  11  -1  -4  579.81   81.81
 -11   1   3   43.64   15.69
  11   1  -3   25.72    9.87
  11  -1  -3   18.13    8.73
 -11  -1   3   23.31   14.82
  11   1  -2  451.17   57.45
 -11   1   2  574.74   37.87
 -11  -1   2  480.45   71.95
  11  -1  -2  433.64   51.67
  11   1  -1  164.80   36.17
 -11   1   1  164.72   38.40
  11  -1  -1  163.66   38.94
 -11  -1   1  162.78   40.34
  11   1   0  124.88   40.16
 -11   1   0   88.10   27.37
  11  -1   0  127.92   31.50
 -11  -1   0  191.63   43.42
  11   1   1   51.87   19.45
 -11   1  -1   62.53   14.14
  11  -1   1   47.65   11.93
 -11  -1  -1   47.06   34.83
 -11   2  10  371.84   48.99
  11   2 -10  418.63   54.57
 -11  -2  10  417.04   65.11
  11  -2 -10  359.48   73.93
 -11   2   9  130.38   26.94
  11   2  -9  192.90   33.67
 -11  -2   9  210.55   33.06
  11  -2  -9  229.23   38.52
 -11   2   8  696.79  119.74
  11   2  -8  798.83   81.65
 -11  -2   8  904.06  131.90
  11  -2  -8  825.43   59.27
 -11   2   7  497.09   92.22
  11   2  -7  580.74   61.66
  11   2  -7  563.58   69.54
 -11   2   7  509.18   72.89
  11  -2  -7  589.76   79.43
 -11  -2   7  519.81   76.39
 -11   2   6  404.53   64.88
  11   2  -6  424.28   41.45
 -11   2   6  460.18   51.75
 -11  -2   6  413.74   72.24
  11  -2  -6  438.20   60.99
  11   2  -5   45.47   19.50
 -11   2   5   88.49   20.74
  11  -2  -5   33.49   11.82
 -11  -2   5   40.10   12.40
  11  -2  -5   59.82   20.48
  11   2  -4  596.05   40.84
 -11   2   4  502.65   67.60
  11  -2  -4  434.95   70.85
 -11  -2   4  489.80   65.48
  11  -2  -4  441.49   77.68
  11   2  -3  173.03   35.21
 -11   2   3  202.35   28.13
  11  -2  -3  187.82   35.48
 -11  -2   3  204.36   30.70
  11  -2  -3  211.08   23.52
  11   2  -2  361.49   49.25
 -11   2   2  366.39   46.18
 -11  -2   2  362.96   49.91
  11  -2  -2  239.68   43.60
  11   2  -1  588.58   34.73
 -11   2   1  673.00   39.88
  11  -2  -1  484.69   80.60
 -11  -2   1  608.72   76.59
  11   2   0  290.15   61.95
 -11   2   0  343.91   51.64
  11  -2   0  209.55   46.02
 -11  -2   0  342.74   53.71
  11   2   1   46.54   11.34
 -11   2  -1   10.67   15.93
 -11  -2  -1   52.25   17.49
  11   3  -9  129.14   24.24
  11  -3  -9  176.77   34.26
 -11  -3   9  141.13   25.08
 -11   3   8  136.07   27.68
 -11   3   8  154.97   31.58
  11   3  -8  155.76   34.81
 -11  -3   8  191.98   39.42
  11  -3  -8  171.49   33.99
 -11   3   7   34.00   13.80
  11   3  -7   47.72   18.90
 -11   3   7   60.62   19.91
 -11  -3   7   26.79   12.73
  11  -3  -7   57.96   21.80
 -11   3   6   21.43   13.08
  11   3  -6   44.27   21.12
 -11   3   6   60.71   15.88
 -11  -3   6  -12.48   14.92
  11  -3  -6   27.68   12.58
  11   3  -5  327.00   41.00
 -11   3   5  358.42   54.94
  11  -3  -5  290.22   37.49
 -11  -3   5  434.15   32.69
  11  -3  -5  298.87   42.78
  11   3  -4   33.01   17.87
 -11   3   4   86.47   20.58
 -11  -3   4   60.42   23.22
  11  -3  -4   78.72   23.42
  11   3  -3  342.66   45.29
 -11   3   3  394.72   54.32
 -11  -3   3  415.37   60.22
  11  -3  -3  324.99   58.11
  11   3  -2  142.21   29.37
 -11   3   2  132.38   43.55
 -11  -3   2  242.63   50.99
  11  -3  -2   93.68   21.92
  11   3  -1  443.77   31.16
 -11   3   1  480.12   64.97
 -11  -3   1  428.52   69.23
  11   3   0   15.07   10.79
 -11   3   0   37.46   17.02
 -11  -3   0   35.14   17.02
  11   3   1   31.14   10.89
 -11  -4   9   70.89   29.40
  11  -4  -9   37.35   12.60
 -11   4   8 1050.80   55.28
  11  -4  -8 1024.83   53.67
 -11  -4   8  914.28  132.96
  11   4  -7  592.08   38.21
 -11   4   7  472.36   54.55
  11  -4  -7  483.24   53.12
  11   4  -6  460.25   54.18
 -11   4   6  455.67   50.12
 -11  -4   6  439.59   50.46
  11  -4  -6  443.75   52.55
  11   4  -5  300.00   31.95
 -11   4   5  268.62   40.86
 -11  -4   5  253.21   42.21
  11  -4  -5  355.30   30.33
  11   4  -4  261.10   30.33
 -11   4   4  302.46   34.38
 -11  -4   4  272.53   39.78
  11  -4  -4  299.69   32.64
  11   4  -3  206.02   53.49
 -11   4   3  237.12   34.44
 -11  -4   3  222.60   38.57
  11  -4  -3  239.32   32.86
  11   4  -2  392.26   72.60
 -11   4   2  432.26   49.81
 -11  -4   2  393.08   50.54
  11  -4  -2  292.44   75.56
  11   4  -1  339.35   32.99
 -11   4   1  304.96   74.89
 -11  -4   1  320.51   71.24
  11   4   0 1201.30  143.92
 -11   4   0 1050.78  144.87
 -11  -4   0 1108.26  159.77
  11   5  -8   -9.02   22.17
 -11   5   8   24.21   15.58
  11  -5  -8   18.95   13.73
  11   5  -7  421.21   61.96
 -11   5   7  383.02   65.30
  11  -5  -7  412.69   68.94
  11   5  -6   -1.61   18.54
 -11   5   6   27.89   11.79
 -11  -5   6   13.46   10.20
  11  -5  -6   27.85   16.97
  11   5  -5  310.78   59.85
 -11   5   5  361.55   37.65
 -11  -5   5  263.34   68.85
  11  -5  -5  351.82   31.36
  11   5  -4  265.63   53.53
 -11   5   4  181.77   37.62
 -11  -5   4  244.85   56.67
  11  -5  -4  257.61   49.33
  11   5  -3   42.02   21.12
 -11   5   3   55.44   35.32
 -11  -5   3   -2.43   18.93
  11  -5  -3  -17.49   19.13
  11   5  -2  166.39   29.66
 -11   5   2  181.48   37.95
 -11  -5   2  182.83   34.77
  11  -5  -2  101.70   28.25
  11   5  -1    8.38   12.98
 -11   5   1   27.80   24.05
 -11  -5   1   -7.75   21.02
  11   6  -7   45.30   23.54
 -11   6   7   36.03   20.74
  11  -6  -7   19.57   16.51
  11   6  -6   20.67   24.35
 -11   6   6   45.60   25.37
 -11  -6   6   49.53   19.02
  11  -6  -6   21.94   14.43
  11   6  -5  398.49   34.89
 -11   6   5  406.21   72.01
 -11  -6   5  372.88   48.25
  11  -6  -5  347.74   68.09
  11   6  -4   96.96   39.49
 -11   6   4   49.81   26.31
 -11  -6   4   99.68   34.00
  11  -6  -4   98.99   34.22
  11   6  -3  190.82   35.64
 -11   6   3  137.63   34.88
 -11  -6   3  124.88   20.83
  11  -6  -3   93.49   34.56
  11   6  -2   31.86   12.79
 -11   6   2   24.12   11.52
 -11  -6   2   23.97   11.67
  11  -6  -2    4.58    9.01
  11   7  -5  374.09   58.90
 -11   7   5  302.03   51.96
 -11  -7   5  282.76   46.86
  11  -7  -5  294.02   38.24
  11   7  -4  230.04   29.82
 -11   7   4  182.29   39.26
 -11  -7   4  221.33   30.35
  11  -7  -4  135.89   38.85
  11   7  -3  206.62   46.24
 -12   0   8   11.44    8.50
  12   0  -8   33.62   12.32
 -12   0   7   10.53   12.04
  12   0  -6   66.15   26.46
 -12   0   6  100.52   32.49
  12   0  -5   12.10   18.25
 -12   0   5   37.13   14.33
  12   0  -4  100.05   32.82
 -12   0   4   55.36   19.54
  12   0  -3   20.35   11.60
 -12   0   3   38.60   19.27
  12   0  -2   33.45   18.02
 -12   0   2   48.68    9.84
 -12   1   8   81.28   12.53
 -12  -1   8   70.65   18.95
  12  -1  -8   50.21    8.56
 -12   1   7   -5.40   18.37
  12   1  -7   -0.79   18.92
 -12   1   7   46.79   22.78
  12  -1  -7   13.51   12.67
 -12   1   6  321.96   56.84
  12   1  -6  347.16   54.11
  12  -1  -6  305.53   55.36
 -12  -1   6  356.39   57.91
  12   1  -5  419.16   72.87
 -12   1   5  384.00   69.12
 -12  -1   5  319.28   78.27
  12  -1  -5  380.56   40.19
  12   1  -4  284.27   51.09
 -12   1   4  300.55   58.34
  12  -1  -4  338.70   27.86
 -12  -1   4  298.26   46.98
  12   1  -3   87.73   30.56
 -12   1   3   79.82   26.64
  12  -1  -3   36.48   14.22
 -12  -1   3  121.21   25.03
 -12   1   2   38.50   10.90
 -12  -1   2  111.35   28.69
  12  -1  -2   76.70   15.51
 -12  -2   8   10.66   15.04
  12  -2  -8   29.66    9.45
  12   2  -7   -8.72   19.06
 -12   2   7   46.27   18.44
  12  -2  -7   33.12   20.36
  12   2  -6  320.70   39.06
 -12   2   6  453.68   38.15
 -12  -2   6  342.54   61.68
  12  -2  -6  360.19   54.23
  12   2  -5   39.33   23.48
 -12   2   5   66.00   26.14
 -12  -2   5   20.21   15.44
  12   2  -4  308.55   53.10
 -12   2   4  417.43   41.98
 -12  -2   4  271.22   51.68
  12   2  -3  230.84   46.09
 -12   2   3  255.39   51.32
 -12  -2   3  222.39   39.15
  12   2  -2  209.78   33.57
 -12   2   2  183.13   40.58
 -12  -2   2  238.78   42.29
  12   3  -7  319.31   57.46
 -12   3   7  260.59   47.26
  12  -3  -7  286.69   48.32
  12   3  -6   53.28   16.31
 -12   3   6   42.40   11.37
 -12  -3   6  105.43   31.53
  12  -3  -6   52.17   14.22
  12   3  -5  669.45   65.19
 -12   3   5  501.43   85.01
 -12  -3   5  603.18   79.16
  12  -3  -5  494.46   73.08
  12   3  -4  152.96   30.41
 -12   3   4  109.03   32.64
 -12  -3   4   90.95   29.08
  12   3  -3    3.47   10.93
 -12   3   3   55.83   14.49
 -12  -3   3   53.60   20.99
  12   4  -6  179.70   41.03
 -12   4   6  130.06   29.75
 -12  -4   6   76.05   23.13
  12  -4  -6  128.24   30.40
  12   4  -5  106.01   21.88
 -12   4   5  112.71   34.90
  12  -4  -5   97.24   23.70
  12   4  -4  236.36   28.20
 -12   4   4  223.60   38.64
 -12  -4   4  218.06   32.26
;
_shelx_hkl_checksum              61029
loop_
_space_group_symop_id
_space_group_symop_operation_xyz
1 +X,+Y,+Z
2 -X,1/2+Y,-Z
loop_
_atom_site_label
_atom_site_type_symbol
_atom_site_fract_x
_atom_site_fract_y
_atom_site_fract_z
_atom_site_U_iso_or_equiv
_atom_site_adp_type
_atom_site_occupancy
_atom_site_site_symmetry_order
_atom_site_calc_flag
_atom_site_refinement_flags_posn
_atom_site_refinement_flags_adp
S1 S 0.66779(6) 0.33026(5) 0.23532(6) 0.03121(15) Uani 1 1 d . .
O4 O 0.7544(2) 0.40473(19) 0.18185(19) 0.0424(5) Uani 1 1 d . .
O6 O 0.7333(2) 0.22574(18) 0.3119(2) 0.0454(5) Uani 1 1 d . .
N11 N 0.6178(2) 0.41010(17) 0.34224(19) 0.0283(4) Uani 1 1 d . .
C2 C 0.9025(3) 0.4250(2) 0.8815(2) 0.0313(5) Uani 1 1 d . .
C3 C 0.9248(2) 0.4758(2) 0.7636(2) 0.0275(5) Uani 1 1 d . .
C5 C 0.5818(2) 0.35261(19) 0.4563(2) 0.0267(5) Uani 1 1 d . .
H5 H 0.5901 0.2665 0.4443 0.032 Uiso 1 1 calc R U
C7 C 0.8193(2) 0.4523(2) 0.6249(2) 0.0263(4) Uani 1 1 d . .
H7 H 0.8340 0.4850 0.5455 0.032 Uiso 1 1 calc R U
C8 C 0.5054(3) 0.2898(2) 0.0896(2) 0.0303(5) Uani 1 1 d . .
C9 C 0.6965(2) 0.3835(2) 0.6026(2) 0.0266(4) Uani 1 1 d . .
C10 C 0.4220(2) 0.3756(2) 0.4440(2) 0.0276(5) Uani 1 1 d . .
C12 C 0.3263(3) 0.3263(3) -0.1451(3) 0.0399(5) Uani 1 1 d . .
H12 H 0.2934 0.3720 -0.2293 0.048 Uiso 1 1 calc R U
C13 C 0.1656(3) 0.3127(3) 0.3694(3) 0.0430(6) Uani 1 1 d . .
H13 H 0.0913 0.2554 0.3263 0.052 Uiso 1 1 calc R U
C14 C 1.0523(3) 0.5471(2) 0.7897(3) 0.0339(5) Uani 1 1 d . .
H14 H 1.0695 0.5803 0.7119 0.041 Uiso 1 1 calc R U
C15 C 0.2430(3) 0.2299(2) -0.1376(3) 0.0394(6) Uani 1 1 d . .
C16 C 1.0064(3) 0.4495(3) 1.0206(3) 0.0433(7) Uani 1 1 d . .
H16 H 0.9925 0.4164 1.1000 0.052 Uiso 1 1 calc R U
C17 C 0.4567(3) 0.3580(2) -0.0327(3) 0.0347(5) Uani 1 1 d . .
H17 H 0.5114 0.4249 -0.0395 0.042 Uiso 1 1 calc R U
C18 C 0.3109(3) 0.2934(2) 0.3802(3) 0.0354(5) Uani 1 1 d . .
H18 H 0.3346 0.2233 0.3436 0.042 Uiso 1 1 calc R U
C19 C 1.1506(3) 0.5687(3) 0.9251(3) 0.0434(6) Uani 1 1 d . .
H19 H 1.2354 0.6164 0.9407 0.052 Uiso 1 1 calc R U
C20 C 0.7755(3) 0.3530(2) 0.8561(2) 0.0368(6) Uani 1 1 d . .
H20 H 0.7600 0.3183 0.9340 0.044 Uiso 1 1 calc R U
C21 C 0.2371(3) 0.4971(3) 0.4847(3) 0.0420(6) Uani 1 1 d . .
H21 H 0.2119 0.5673 0.5200 0.050 Uiso 1 1 calc R U
C22 C 0.5651(3) 0.5291(2) 0.2975(3) 0.0345(5) Uani 1 1 d . .
H22A H 0.5978 0.5808 0.3804 0.041 Uiso 1 1 calc R U
H22B H 0.4561 0.5294 0.2531 0.041 Uiso 1 1 calc R U
H22C H 0.6063 0.5568 0.2291 0.041 Uiso 1 1 calc R U
C23 C 0.6759(3) 0.3332(3) 0.7219(2) 0.0346(5) Uani 1 1 d . .
H23 H 0.5916 0.2852 0.7073 0.042 Uiso 1 1 calc R U
C24 C 0.4261(3) 0.1910(2) 0.0986(3) 0.0408(6) Uani 1 1 d . .
H24 H 0.4609 0.1434 0.1812 0.049 Uiso 1 1 calc R U
C25 C 0.3836(3) 0.4777(2) 0.4973(3) 0.0352(5) Uani 1 1 d . .
H25 H 0.4579 0.5345 0.5425 0.042 Uiso 1 1 calc R U
C26 C 1.1263(3) 0.5202(3) 1.0415(3) 0.0496(7) Uani 1 1 d . .
H26 H 1.1939 0.5369 1.1353 0.060 Uiso 1 1 calc R U
C27 C 0.2953(3) 0.1627(2) -0.0145(3) 0.0441(7) Uani 1 1 d . .
H27 H 0.2404 0.0959 -0.0078 0.053 Uiso 1 1 calc R U
C28 C 0.1014(3) 0.1968(3) -0.2600(4) 0.0563(8) Uani 1 1 d . .
H28A H 0.0177 0.1986 -0.2288 0.068 Uiso 1 1 calc R U
H28B H 0.1116 0.1179 -0.2926 0.068 Uiso 1 1 calc R U
H28C H 0.0831 0.2524 -0.3380 0.068 Uiso 1 1 calc R U
C29 C 0.1289(3) 0.4142(3) 0.4208(3) 0.0430(6) Uani 1 1 d . .
H29 H 0.0293 0.4272 0.4124 0.052 Uiso 1 1 calc R U
loop_
_atom_site_aniso_label
_atom_site_aniso_U_11
_atom_site_aniso_U_22
_atom_site_aniso_U_33
_atom_site_aniso_U_23
_atom_site_aniso_U_13
_atom_site_aniso_U_12
S1 0.0312(3) 0.0400(3) 0.0235(2) 0.0023(2) 0.0116(2) 0.0077(2)
O4 0.0326(9) 0.0653(13) 0.0326(9) -0.0005(9) 0.0162(7) -0.0051(9)
O6 0.0537(11) 0.0495(11) 0.0335(10) 0.0077(8) 0.0170(9) 0.0259(9)
N11 0.0345(10) 0.0292(10) 0.0218(9) 0.0020(7) 0.0114(8) 0.0028(8)
C2 0.0279(11) 0.0421(13) 0.0231(10) 0.0012(9) 0.0088(9) 0.0050(10)
C3 0.0248(10) 0.0299(11) 0.0281(11) 0.0008(9) 0.0103(9) 0.0053(9)
C5 0.0312(11) 0.0274(12) 0.0223(10) -0.0005(8) 0.0110(8) -0.0008(9)
C7 0.0284(11) 0.0294(11) 0.0231(10) 0.0041(8) 0.0120(9) 0.0027(9)
C8 0.0382(12) 0.0307(11) 0.0249(11) -0.0026(9) 0.0154(9) 0.0027(10)
C9 0.0277(10) 0.0292(11) 0.0237(10) 0.0022(9) 0.0108(8) 0.0025(9)
C10 0.0288(11) 0.0302(11) 0.0218(10) -0.0009(8) 0.0076(8) -0.0011(9)
C12 0.0403(13) 0.0389(13) 0.0333(12) 0.0011(12) 0.0060(10) 0.0061(13)
C13 0.0307(12) 0.0505(17) 0.0403(13) -0.0045(12) 0.0053(10) -0.0115(12)
C14 0.0281(11) 0.0365(13) 0.0355(13) -0.0003(10) 0.0105(10) 0.0001(10)
C15 0.0375(13) 0.0372(14) 0.0406(14) -0.0133(11) 0.0117(11) 0.0031(11)
C16 0.0331(13) 0.070(2) 0.0251(12) -0.0006(12) 0.0090(10) 0.0040(13)
C17 0.0369(12) 0.0338(13) 0.0317(12) 0.0035(9) 0.0112(10) 0.0015(10)
C18 0.0372(13) 0.0336(12) 0.0331(12) -0.0044(10) 0.0109(10) -0.0052(10)
C19 0.0303(12) 0.0521(17) 0.0447(15) -0.0077(13) 0.0108(11) -0.0047(12)
C20 0.0353(12) 0.0523(17) 0.0252(11) 0.0074(11) 0.0141(9) -0.0028(11)
C21 0.0357(13) 0.0487(15) 0.0411(15) -0.0077(12) 0.0140(11) 0.0067(12)
C22 0.0389(13) 0.0309(12) 0.0347(13) 0.0044(10) 0.0151(11) 0.0026(10)
C23 0.0325(11) 0.0434(12) 0.0288(11) 0.0052(11) 0.0126(9) -0.0061(11)
C24 0.0623(17) 0.0336(13) 0.0294(13) -0.0016(10) 0.0207(12) -0.0056(12)
C25 0.0321(12) 0.0356(13) 0.0367(13) -0.0103(11) 0.0119(10) -0.0037(10)
C26 0.0330(14) 0.074(2) 0.0330(14) -0.0105(14) 0.0031(11) 0.0026(14)
C27 0.0572(17) 0.0366(14) 0.0423(15) -0.0110(12) 0.0233(13) -0.0143(13)
C28 0.0427(16) 0.0518(18) 0.061(2) -0.0170(16) 0.0053(14) 0.0006(14)
C29 0.0278(12) 0.0604(18) 0.0385(14) 0.0050(13) 0.0100(11) 0.0018(12)
loop_
_atom_type_symbol
_atom_type_description
_atom_type_scat_dispersion_real
_atom_type_scat_dispersion_imag
_atom_type_scat_source
C C 0.0033 0.0016
;
International Tables for Crystallography
(Vol. C, Tables 4.2.6.8 and 6.1.1.4)
;
H H 0.0000 0.0000
;
International Tables for Crystallography
(Vol. C, Table 6.1.1.4)
;
N N 0.0061 0.0033
;
International Tables for Crystallography
(Vol. C, Tables 4.2.6.8 and 6.1.1.4)
;
O O 0.0106 0.0060
;
International Tables for Crystallography
(Vol. C, Tables 4.2.6.8 and 6.1.1.4)
;
S S 0.1246 0.1234
;
International Tables for Crystallography
(Vol. C, Tables 4.2.6.8 and 6.1.1.4)
;
loop_
_geom_angle_atom_site_label_1
_geom_angle_atom_site_label_2
_geom_angle_atom_site_label_3
_geom_angle
O6 S1 O4 119.75(13)
O6 S1 N11 106.62(12)
O4 S1 N11 106.68(12)
O6 S1 C8 107.82(13)
O4 S1 C8 107.43(12)
N11 S1 C8 108.08(12)
C22 N11 C5 119.70(18)
C22 N11 S1 118.06(16)
C5 N11 S1 119.52(16)
C16 C2 C20 122.2(2)
C16 C2 C3 118.8(2)
C20 C2 C3 118.9(2)
C7 C3 C14 122.7(2)
C7 C3 C2 118.6(2)
C14 C3 C2 118.7(2)
N11 C5 C9 111.06(18)
N11 C5 C10 113.14(18)
C9 C5 C10 112.32(18)
N11 C5 H5 106.6
C9 C5 H5 106.6
C10 C5 H5 106.6
C9 C7 C3 121.6(2)
C9 C7 H7 119.2
C3 C7 H7 119.2
C24 C8 C17 120.5(2)
C24 C8 S1 119.83(19)
C17 C8 S1 119.68(19)
C7 C9 C23 119.1(2)
C7 C9 C5 124.02(19)
C23 C9 C5 116.9(2)
C18 C10 C25 118.1(2)
C18 C10 C5 120.2(2)
C25 C10 C5 121.7(2)
C15 C12 C17 121.8(3)
C15 C12 H12 119.1
C17 C12 H12 119.1
C29 C13 C18 120.4(2)
C29 C13 H13 119.8
C18 C13 H13 119.8
C19 C14 C3 120.9(2)
C19 C14 H14 119.5
C3 C14 H14 119.5
C12 C15 C27 118.0(2)
C12 C15 C28 121.3(3)
C27 C15 C28 120.7(3)
C26 C16 C2 120.8(3)
C26 C16 H16 119.6
C2 C16 H16 119.6
C8 C17 C12 118.8(2)
C8 C17 H17 120.6
C12 C17 H17 120.6
C13 C18 C10 120.8(2)
C13 C18 H18 119.6
C10 C18 H18 119.6
C14 C19 C26 120.2(3)
C14 C19 H19 119.9
C26 C19 H19 119.9
C23 C20 C2 121.0(2)
C23 C20 H20 119.5
C2 C20 H20 119.5
C29 C21 C25 119.9(3)
C29 C21 H21 120.0
C25 C21 H21 120.0
N11 C22 H22A 109.5
N11 C22 H22B 109.5
H22A C22 H22B 109.5
N11 C22 H22C 109.5
H22A C22 H22C 109.5
H22B C22 H22C 109.5
C20 C23 C9 120.8(2)
C20 C23 H23 119.6
C9 C23 H23 119.6
C27 C24 C8 119.3(3)
C27 C24 H24 120.4
C8 C24 H24 120.4
C21 C25 C10 120.8(2)
C21 C25 H25 119.6
C10 C25 H25 119.6
C16 C26 C19 120.6(2)
C16 C26 H26 119.7
C19 C26 H26 119.7
C24 C27 C15 121.5(3)
C24 C27 H27 119.2
C15 C27 H27 119.2
C15 C28 H28A 109.5
C15 C28 H28B 109.5
H28A C28 H28B 109.5
C15 C28 H28C 109.5
H28A C28 H28C 109.5
H28B C28 H28C 109.5
C13 C29 C21 119.9(3)
C13 C29 H29 120.1
C21 C29 H29 120.1
loop_
_geom_bond_atom_site_label_1
_geom_bond_atom_site_label_2
_geom_bond_distance
S1 O6 1.438(2)
S1 O4 1.443(2)
S1 N11 1.632(2)
S1 C8 1.766(3)
N11 C22 1.466(3)
N11 C5 1.490(3)
C2 C16 1.419(3)
C2 C20 1.423(4)
C2 C3 1.425(3)
C3 C7 1.419(3)
C3 C14 1.421(3)
C5 C9 1.523(3)
C5 C10 1.532(3)
C5 H5 1.0000
C7 C9 1.374(3)
C7 H7 0.9500
C8 C24 1.391(4)
C8 C17 1.392(3)
C9 C23 1.428(3)
C10 C18 1.392(3)
C10 C25 1.399(3)
C12 C15 1.388(4)
C12 C17 1.393(3)
C12 H12 0.9500
C13 C29 1.377(4)
C13 C18 1.391(4)
C13 H13 0.9500
C14 C19 1.368(4)
C14 H14 0.9500
C15 C27 1.392(4)
C15 C28 1.510(4)
C16 C26 1.368(4)
C16 H16 0.9500
C17 H17 0.9500
C18 H18 0.9500
C19 C26 1.409(4)
C19 H19 0.9500
C20 C23 1.359(3)
C20 H20 0.9500
C21 C29 1.381(4)
C21 C25 1.397(4)
C21 H21 0.9500
C22 H22A 0.9800
C22 H22B 0.9800
C22 H22C 0.9800
C23 H23 0.9500
C24 C27 1.389(4)
C24 H24 0.9500
C25 H25 0.9500
C26 H26 0.9500
C27 H27 0.9500
C28 H28A 0.9800
C28 H28B 0.9800
C28 H28C 0.9800
C29 H29 0.9500
loop_
_geom_torsion_atom_site_label_1
_geom_torsion_atom_site_label_2
_geom_torsion_atom_site_label_3
_geom_torsion_atom_site_label_4
_geom_torsion
O6 S1 N11 C22 172.16(18)
O4 S1 N11 C22 43.1(2)
C8 S1 N11 C22 -72.1(2)
O6 S1 N11 C5 -26.6(2)
O4 S1 N11 C5 -155.62(16)
C8 S1 N11 C5 89.11(18)
C16 C2 C3 C7 -179.1(2)
C20 C2 C3 C7 -0.2(3)
C16 C2 C3 C14 1.4(3)
C20 C2 C3 C14 -179.7(2)
C22 N11 C5 C9 -86.4(2)
S1 N11 C5 C9 112.70(19)
C22 N11 C5 C10 41.0(3)
S1 N11 C5 C10 -119.92(18)
C14 C3 C7 C9 -179.7(2)
C2 C3 C7 C9 0.9(3)
O6 S1 C8 C24 28.9(2)
O4 S1 C8 C24 159.2(2)
N11 S1 C8 C24 -86.0(2)
O6 S1 C8 C17 -152.0(2)
O4 S1 C8 C17 -21.7(2)
N11 S1 C8 C17 93.1(2)
C3 C7 C9 C23 -0.9(3)
C3 C7 C9 C5 -178.3(2)
N11 C5 C9 C7 -2.0(3)
C10 C5 C9 C7 -129.8(2)
N11 C5 C9 C23 -179.5(2)
C10 C5 C9 C23 52.7(3)
N11 C5 C10 C18 97.8(3)
C9 C5 C10 C18 -135.5(2)
N11 C5 C10 C25 -83.0(3)
C9 C5 C10 C25 43.7(3)
C7 C3 C14 C19 179.3(2)
C2 C3 C14 C19 -1.3(4)
C17 C12 C15 C27 -1.5(4)
C17 C12 C15 C28 179.8(3)
C20 C2 C16 C26 -179.1(3)
C3 C2 C16 C26 -0.3(4)
C24 C8 C17 C12 0.8(4)
S1 C8 C17 C12 -178.33(19)
C15 C12 C17 C8 0.9(4)
C29 C13 C18 C10 0.6(4)
C25 C10 C18 C13 0.2(4)
C5 C10 C18 C13 179.4(2)
C3 C14 C19 C26 -0.1(4)
C16 C2 C20 C23 178.5(3)
C3 C2 C20 C23 -0.4(4)
C2 C20 C23 C9 0.3(4)
C7 C9 C23 C20 0.3(4)
C5 C9 C23 C20 177.9(2)
C17 C8 C24 C27 -1.7(4)
S1 C8 C24 C27 177.4(2)
C29 C21 C25 C10 0.9(4)
C18 C10 C25 C21 -1.0(4)
C5 C10 C25 C21 179.9(2)
C2 C16 C26 C19 -1.1(5)
C14 C19 C26 C16 1.3(5)
C8 C24 C27 C15 1.0(4)
C12 C15 C27 C24 0.6(4)
C28 C15 C27 C24 179.3(3)
C18 C13 C29 C21 -0.6(4)
C25 C21 C29 C13 -0.2(4)
